PV-003059629657
 OpenBabel08202115463D

 53 56  0  0  0  0  0  0  0  0999 V2000
   -6.7382   -4.3794   -4.0986 C   0  0  0  0  0  0  0  0  0  0  0  0
   -6.2298   -3.1785   -3.3365 C   0  0  0  0  0  0  0  0  0  0  0  0
   -7.0281   -2.0844   -3.0609 C   0  0  0  0  0  0  0  0  0  0  0  0
   -6.5116   -1.0105   -2.3527 C   0  0  0  0  0  0  0  0  0  0  0  0
   -5.1969   -1.0315   -1.9267 C   0  0  0  0  0  0  0  0  0  0  0  0
   -4.3964   -2.1288   -2.2031 C   0  0  0  0  0  0  0  0  0  0  0  0
   -2.9589   -2.0551   -1.7984 C   0  0  0  0  0  0  0  0  0  0  0  0
   -1.1295   -0.6275   -1.0269 C   0  0  0  0  0  0  0  0  0  0  0  0
   -0.8927    0.7982   -0.5921 C   0  0  0  0  0  0  0  0  0  0  0  0
    0.6243    2.4473    0.2776 C   0  0  0  0  0  0  0  0  0  0  0  0
    2.0646    2.8411    0.4889 C   0  0  0  0  0  0  0  0  0  0  0  0
    3.3873    2.0298    2.4085 C   0  0  0  0  0  0  0  0  0  0  0  0
    4.2834    0.9344    2.9551 C   0  0  1  0  0  0  0  0  0  0  0  0
    5.1984    0.2837    1.9159 C   0  0  0  0  0  0  0  0  0  0  0  0
    5.7958    0.8983    3.1833 C   0  0  1  0  0  0  0  0  0  0  0  0
    5.7950    2.4194    3.3477 C   0  0  1  0  0  0  0  0  0  0  0  0
    4.8990    1.5372    4.2195 C   0  0  0  0  0  0  0  0  0  0  0  0
    2.6468    0.4936    0.6218 C   0  0  0  0  0  0  0  0  0  0  0  0
    1.1976    0.1428    0.3931 C   0  0  0  0  0  0  0  0  0  0  0  0
   -4.9112   -3.1997   -2.9093 C   0  0  0  0  0  0  0  0  0  0  0  0
   -2.2828   -3.0666   -1.7074 O   0  0  0  0  0  0  0  0  0  0  0  0
    3.2946    3.0735    3.0532 O   0  0  0  0  0  0  0  0  0  0  0  0
    7.1916    2.1608    3.4983 O   0  0  0  0  0  0  0  0  0  0  0  0
   -2.4722   -0.8364   -1.5480 N   0  0  0  0  0  0  0  0  0  0  0  0
    0.5293    1.1614   -0.4125 N   0  0  0  0  0  0  0  0  0  0  0  0
    2.7489    1.8060    1.2619 N   0  0  0  0  0  0  0  0  0  0  0  0
   -6.7210   -5.2396   -3.4624 H   0  0  0  0  0  0  0  0  0  0  0  0
   -6.1127   -4.5526   -4.9493 H   0  0  0  0  0  0  0  0  0  0  0  0
   -7.7410   -4.1967   -4.4239 H   0  0  0  0  0  0  0  0  0  0  0  0
   -8.0162   -2.0667   -3.3849 H   0  0  0  0  0  0  0  0  0  0  0  0
   -7.1134   -0.1890   -2.1418 H   0  0  0  0  0  0  0  0  0  0  0  0
   -4.8084   -0.2241   -1.3988 H   0  0  0  0  0  0  0  0  0  0  0  0
   -3.0390   -0.0559   -1.7212 H   0  0  0  0  0  0  0  0  0  0  0  0
   -0.4228   -0.8748   -1.7912 H   0  0  0  0  0  0  0  0  0  0  0  0
   -0.9846   -1.2714   -0.1846 H   0  0  0  0  0  0  0  0  0  0  0  0
   -1.3956    0.9501    0.3401 H   0  0  0  0  0  0  0  0  0  0  0  0
   -1.3110    1.4464   -1.3334 H   0  0  0  0  0  0  0  0  0  0  0  0
    0.1393    2.3709    1.2283 H   0  0  0  0  0  0  0  0  0  0  0  0
    0.1392    3.1973   -0.3115 H   0  0  0  0  0  0  0  0  0  0  0  0
    2.5457    2.9528   -0.4603 H   0  0  0  0  0  0  0  0  0  0  0  0
    2.1054    3.7682    1.0214 H   0  0  0  0  0  0  0  0  0  0  0  0
    4.7793   -0.1594    1.0367 H   0  0  0  0  0  0  0  0  0  0  0  0
    6.0542   -0.2788    2.2261 H   0  0  0  0  0  0  0  0  0  0  0  0
    6.2591    0.2807    3.9245 H   0  0  0  0  0  0  0  0  0  0  0  0
    5.6123    3.4682    3.4550 H   0  0  0  0  0  0  0  0  0  0  0  0
    7.6929    2.8001    2.9867 H   0  0  0  0  0  0  0  0  0  0  0  0
    5.4339    0.8399    4.8299 H   0  0  0  0  0  0  0  0  0  0  0  0
    4.2049    2.0824    4.8243 H   0  0  0  0  0  0  0  0  0  0  0  0
    3.0945   -0.2446    1.2538 H   0  0  0  0  0  0  0  0  0  0  0  0
    3.1581    0.5170   -0.3178 H   0  0  0  0  0  0  0  0  0  0  0  0
    1.1421   -0.7968   -0.1159 H   0  0  0  0  0  0  0  0  0  0  0  0
    0.7035    0.0662    1.3391 H   0  0  0  0  0  0  0  0  0  0  0  0
   -4.3093   -4.0212   -3.1202 H   0  0  0  0  0  0  0  0  0  0  0  0
  1  2  1  0  0  0  0
  1 27  1  0  0  0  0
  1 28  1  0  0  0  0
  1 29  1  0  0  0  0
  2 20  1  0  0  0  0
  2  3  2  0  0  0  0
  3  4  1  0  0  0  0
  3 30  1  0  0  0  0
  4 31  1  0  0  0  0
  4  5  2  0  0  0  0
  5  6  1  0  0  0  0
  5 32  1  0  0  0  0
  6  7  1  0  0  0  0
  6 20  2  0  0  0  0
  7 24  1  0  0  0  0
  7 21  2  0  0  0  0
  8 24  1  0  0  0  0
  8  9  1  0  0  0  0
  8 34  1  0  0  0  0
  8 35  1  0  0  0  0
  9 25  1  0  0  0  0
  9 36  1  0  0  0  0
  9 37  1  0  0  0  0
 10 25  1  0  0  0  0
 10 11  1  0  0  0  0
 10 38  1  0  0  0  0
 10 39  1  0  0  0  0
 11 26  1  0  0  0  0
 11 40  1  0  0  0  0
 11 41  1  0  0  0  0
 12 26  1  0  0  0  0
 12 22  2  0  0  0  0
 13 12  1  6  0  0  0
 13 14  1  0  0  0  0
 13 15  1  0  0  0  0
 13 17  1  0  0  0  0
 14 15  1  0  0  0  0
 14 42  1  0  0  0  0
 14 43  1  0  0  0  0
 15 16  1  0  0  0  0
 15 44  1  1  0  0  0
 16 23  1  0  0  0  0
 16 17  1  0  0  0  0
 16 45  1  6  0  0  0
 17 47  1  0  0  0  0
 17 48  1  0  0  0  0
 18 26  1  0  0  0  0
 18 19  1  0  0  0  0
 18 49  1  0  0  0  0
 18 50  1  0  0  0  0
 19 25  1  0  0  0  0
 19 51  1  0  0  0  0
 19 52  1  0  0  0  0
 20 53  1  0  0  0  0
 23 46  1  0  0  0  0
 24 33  1  0  0  0  0
M  END
>  <score>
0.34880101680755615

$$$$
Z3442956018
 OpenBabel08202115463D

 44 46  0  0  0  0  0  0  0  0999 V2000
   -1.9077    1.6219   -0.8914 O   0  0  0  0  0  0  0  0  0  0  0  0
   -8.1023   -1.7064   -3.0565 O   0  0  0  0  0  0  0  0  0  0  0  0
    3.6238   -0.4609    4.0668 O   0  0  0  0  0  0  0  0  0  0  0  0
    3.3757    1.8512    4.2641 O   0  0  0  0  0  0  0  0  0  0  0  0
   -1.5069    0.4588   -0.9068 C   0  0  0  0  0  0  0  0  0  0  0  0
   -2.3632   -0.6554   -1.4465 C   0  0  0  0  0  0  0  0  0  0  0  0
   -3.8126   -0.2462   -1.6523 C   0  0  0  0  0  0  0  0  0  0  0  0
   -4.7310   -1.3402   -2.0749 C   0  0  0  0  0  0  0  0  0  0  0  0
   -4.2764   -2.6140   -2.1432 C   0  0  0  0  0  0  0  0  0  0  0  0
   -5.1658   -3.6391   -2.5498 C   0  0  0  0  0  0  0  0  0  0  0  0
   -6.4725   -3.3459   -2.8623 C   0  0  0  0  0  0  0  0  0  0  0  0
   -6.9495   -2.0013   -2.7873 C   0  0  0  0  0  0  0  0  0  0  0  0
    0.7108    0.9874    0.0142 C   0  0  0  0  0  0  0  0  0  0  0  0
    0.5908    2.3413   -0.2359 C   0  0  0  0  0  0  0  0  0  0  0  0
    1.5617    3.2190    0.2208 C   0  0  0  0  0  0  0  0  0  0  0  0
    2.6524    2.7397    0.9215 C   0  0  0  0  0  0  0  0  0  0  0  0
    2.7726    1.3817    1.1722 C   0  0  0  0  0  0  0  0  0  0  0  0
    5.2205    0.5130    1.3558 C   0  0  0  0  0  0  0  0  0  0  0  0
    6.1843    0.0526    2.4471 C   0  0  0  0  0  0  0  0  0  0  0  0
    5.8754    0.9989    3.6182 C   0  0  0  0  0  0  0  0  0  0  0  0
    1.8046    0.5064    0.7169 C   0  0  0  0  0  0  0  0  0  0  0  0
   -6.0233   -1.0559   -2.3907 N   0  0  0  0  0  0  0  0  0  0  0  0
   -0.2826    0.0923   -0.4470 N   0  0  0  0  0  0  0  0  0  0  0  0
    3.9352    0.9358    1.9172 N   0  0  0  0  0  0  0  0  0  0  0  0
    3.6206    3.5568    1.3783 F   0  0  0  0  0  0  0  0  0  0  0  0
    4.0616    0.8075    3.5724 S   0  0  0  0  0  0  0  0  0  0  0  0
   -2.3347   -1.4720   -0.7557 H   0  0  0  0  0  0  0  0  0  0  0  0
   -1.9610   -0.9690   -2.3871 H   0  0  0  0  0  0  0  0  0  0  0  0
   -3.8372    0.5144   -2.4044 H   0  0  0  0  0  0  0  0  0  0  0  0
   -4.1772    0.1526   -0.7288 H   0  0  0  0  0  0  0  0  0  0  0  0
   -3.2897   -2.8363   -1.9010 H   0  0  0  0  0  0  0  0  0  0  0  0
   -4.8280   -4.6207   -2.6124 H   0  0  0  0  0  0  0  0  0  0  0  0
   -7.1173   -4.1076   -3.1550 H   0  0  0  0  0  0  0  0  0  0  0  0
   -6.3155   -0.1223   -2.3334 H   0  0  0  0  0  0  0  0  0  0  0  0
   -0.0716   -0.8646   -0.4338 H   0  0  0  0  0  0  0  0  0  0  0  0
   -0.2278    2.7016   -0.7666 H   0  0  0  0  0  0  0  0  0  0  0  0
    1.4694    4.2383    0.0361 H   0  0  0  0  0  0  0  0  0  0  0  0
    5.6579    1.3363    0.8307 H   0  0  0  0  0  0  0  0  0  0  0  0
    5.0534   -0.2961    0.6759 H   0  0  0  0  0  0  0  0  0  0  0  0
    5.9972   -0.9655    2.7182 H   0  0  0  0  0  0  0  0  0  0  0  0
    7.2005    0.1565    2.1288 H   0  0  0  0  0  0  0  0  0  0  0  0
    6.1871    2.0045    3.4266 H   0  0  0  0  0  0  0  0  0  0  0  0
    6.3006    0.6628    4.5408 H   0  0  0  0  0  0  0  0  0  0  0  0
    1.8968   -0.5129    0.9015 H   0  0  0  0  0  0  0  0  0  0  0  0
  5  6  1  0  0  0  0
  5 23  1  0  0  0  0
  5  1  2  0  0  0  0
  6  7  1  0  0  0  0
  6 27  1  0  0  0  0
  6 28  1  0  0  0  0
  7  8  1  0  0  0  0
  7 29  1  0  0  0  0
  7 30  1  0  0  0  0
  8 22  1  0  0  0  0
  8  9  2  0  0  0  0
  9 10  1  0  0  0  0
  9 31  1  0  0  0  0
 10 32  1  0  0  0  0
 10 11  2  0  0  0  0
 11 12  1  0  0  0  0
 11 33  1  0  0  0  0
 12 22  1  0  0  0  0
 12  2  2  0  0  0  0
 13 23  1  0  0  0  0
 13 21  1  0  0  0  0
 13 14  2  0  0  0  0
 14 15  1  0  0  0  0
 14 36  1  0  0  0  0
 15 37  1  0  0  0  0
 15 16  2  0  0  0  0
 16 25  1  0  0  0  0
 16 17  1  0  0  0  0
 17 24  1  0  0  0  0
 17 21  2  0  0  0  0
 18 24  1  0  0  0  0
 18 19  1  0  0  0  0
 18 38  1  0  0  0  0
 18 39  1  0  0  0  0
 19 20  1  0  0  0  0
 19 40  1  0  0  0  0
 19 41  1  0  0  0  0
 20 42  1  0  0  0  0
 20 43  1  0  0  0  0
 21 44  1  0  0  0  0
 22 34  1  0  0  0  0
 23 35  1  0  0  0  0
 26 24  1  0  0  0  0
 26 20  1  0  0  0  0
 26  3  2  0  0  0  0
 26  4  2  0  0  0  0
M  END
>  <score>
0.36956518888473511

$$$$
PV-004069209310
 OpenBabel08202115463D

 48 51  0  0  0  0  0  0  0  0999 V2000
    6.5098    2.0360    2.9083 C   0  0  0  0  0  0  0  0  0  0  0  0
    5.0462    1.6278    2.6857 C   0  0  0  0  0  0  0  0  0  0  0  0
    4.8155    0.2268    3.2517 C   0  0  0  0  0  0  0  0  0  0  0  0
    4.1116    2.6307    3.3700 C   0  0  0  0  0  0  0  0  0  0  0  0
    2.6437    2.2108    3.2571 C   0  0  0  0  0  0  0  0  0  0  0  0
    2.3190    1.9393    1.8099 C   0  0  0  0  0  0  0  0  0  0  0  0
    3.2831    1.6868    0.8686 C   0  0  0  0  0  0  0  0  0  0  0  0
    2.5876    1.4862   -0.3918 C   0  0  0  0  0  0  0  0  0  0  0  0
    1.2783    1.6311   -0.1084 C   0  0  0  0  0  0  0  0  0  0  0  0
    0.1539    1.5123   -1.1004 C   0  0  0  0  0  0  0  0  0  0  0  0
   -2.2518    1.3084   -1.3691 C   0  0  0  0  0  0  0  0  0  0  0  0
   -2.6548   -0.1416   -1.4699 C   0  0  0  0  0  0  0  0  0  0  0  0
   -2.0234   -1.2270   -0.9417 C   0  0  0  0  0  0  0  0  0  0  0  0
   -3.8109   -1.8439   -2.0358 C   0  0  0  0  0  0  0  0  0  0  0  0
   -4.8977   -2.6445   -2.6549 C   0  0  0  0  0  0  0  0  0  0  0  0
   -4.9358   -4.0008   -2.3716 C   0  0  0  0  0  0  0  0  0  0  0  0
   -5.9723   -4.7786   -2.8521 C   0  0  0  0  0  0  0  0  0  0  0  0
   -6.9768   -4.2011   -3.6129 C   0  0  0  0  0  0  0  0  0  0  0  0
   -6.9391   -2.8487   -3.8956 C   0  0  0  0  0  0  0  0  0  0  0  0
   -5.8994   -2.0688   -3.4136 C   0  0  0  0  0  0  0  0  0  0  0  0
    4.7192    1.6500    1.2001 C   0  0  0  0  0  0  0  0  0  0  0  0
    0.3698    1.4299   -2.3081 O   0  0  0  0  0  0  0  0  0  0  0  0
    1.1359    1.8989    1.2031 O   0  0  0  0  0  0  0  0  0  0  0  0
    5.5861    1.6381    0.3418 O   0  0  0  0  0  0  0  0  0  0  0  0
   -1.0715    1.5063   -0.5410 N   0  0  0  0  0  0  0  0  0  0  0  0
   -2.7726   -2.3141   -1.3134 N   0  0  0  0  0  0  0  0  0  0  0  0
   -3.7804   -0.5295   -2.1553 N   0  0  0  0  0  0  0  0  0  0  0  0
    6.7364    1.9973    3.9534 H   0  0  0  0  0  0  0  0  0  0  0  0
    6.6608    3.0320    2.5476 H   0  0  0  0  0  0  0  0  0  0  0  0
    7.1519    1.3632    2.3793 H   0  0  0  0  0  0  0  0  0  0  0  0
    3.8343   -0.1082    2.9872 H   0  0  0  0  0  0  0  0  0  0  0  0
    4.9079    0.2532    4.3174 H   0  0  0  0  0  0  0  0  0  0  0  0
    5.5429   -0.4454    2.8467 H   0  0  0  0  0  0  0  0  0  0  0  0
    4.2340    3.5882    2.9083 H   0  0  0  0  0  0  0  0  0  0  0  0
    4.3738    2.6972    4.4052 H   0  0  0  0  0  0  0  0  0  0  0  0
    2.4792    1.3246    3.8336 H   0  0  0  0  0  0  0  0  0  0  0  0
    2.0170    2.9969    3.6235 H   0  0  0  0  0  0  0  0  0  0  0  0
    3.0115    1.2753   -1.3178 H   0  0  0  0  0  0  0  0  0  0  0  0
   -1.1684    1.6355    0.4256 H   0  0  0  0  0  0  0  0  0  0  0  0
   -2.0454    1.6756   -2.3527 H   0  0  0  0  0  0  0  0  0  0  0  0
   -3.0641    1.8608   -0.9449 H   0  0  0  0  0  0  0  0  0  0  0  0
   -1.1523   -1.2306   -0.3736 H   0  0  0  0  0  0  0  0  0  0  0  0
   -2.5892   -3.2519   -1.0961 H   0  0  0  0  0  0  0  0  0  0  0  0
   -4.1842   -4.4333   -1.7974 H   0  0  0  0  0  0  0  0  0  0  0  0
   -5.9986   -5.7970   -2.6428 H   0  0  0  0  0  0  0  0  0  0  0  0
   -7.7590   -4.7855   -3.9711 H   0  0  0  0  0  0  0  0  0  0  0  0
   -7.6907   -2.4162   -4.4698 H   0  0  0  0  0  0  0  0  0  0  0  0
   -5.8731   -1.0504   -3.6228 H   0  0  0  0  0  0  0  0  0  0  0  0
  1  2  1  0  0  0  0
  1 28  1  0  0  0  0
  1 29  1  0  0  0  0
  1 30  1  0  0  0  0
  2  3  1  0  0  0  0
  2  4  1  0  0  0  0
  2 21  1  0  0  0  0
  3 31  1  0  0  0  0
  3 32  1  0  0  0  0
  3 33  1  0  0  0  0
  4  5  1  0  0  0  0
  4 34  1  0  0  0  0
  4 35  1  0  0  0  0
  5  6  1  0  0  0  0
  5 36  1  0  0  0  0
  5 37  1  0  0  0  0
  6 23  1  0  0  0  0
  6  7  2  0  0  0  0
  7  8  1  0  0  0  0
  7 21  1  0  0  0  0
  8 38  1  0  0  0  0
  8  9  2  0  0  0  0
  9 10  1  0  0  0  0
  9 23  1  0  0  0  0
 10 25  1  0  0  0  0
 10 22  2  0  0  0  0
 11 25  1  0  0  0  0
 11 12  1  0  0  0  0
 11 40  1  0  0  0  0
 11 41  1  0  0  0  0
 12 27  1  0  0  0  0
 12 13  2  0  0  0  0
 13 26  1  0  0  0  0
 13 42  1  0  0  0  0
 14 26  1  0  0  0  0
 14 15  1  0  0  0  0
 14 27  2  0  0  0  0
 15 20  1  0  0  0  0
 15 16  2  0  0  0  0
 16 17  1  0  0  0  0
 16 44  1  0  0  0  0
 17 45  1  0  0  0  0
 17 18  2  0  0  0  0
 18 19  1  0  0  0  0
 18 46  1  0  0  0  0
 19 47  1  0  0  0  0
 19 20  2  0  0  0  0
 20 48  1  0  0  0  0
 21 24  2  0  0  0  0
 25 39  1  0  0  0  0
 26 43  1  0  0  0  0
M  END
>  <score>
0.3696257472038269

$$$$
PV-003250616646
 OpenBabel08202115463D

 48 51  0  0  0  0  0  0  0  0999 V2000
    3.7921    3.2922    1.8816 C   0  0  0  0  0  0  0  0  0  0  0  0
    1.1241    1.4570    0.4991 C   0  0  0  0  0  0  0  0  0  0  0  0
   -0.8472    0.3308   -0.5025 C   0  0  0  0  0  0  0  0  0  0  0  0
   -3.1107   -0.1959   -1.4929 C   0  0  0  0  0  0  0  0  0  0  0  0
   -2.9682   -1.5706   -1.4835 C   0  0  0  0  0  0  0  0  0  0  0  0
   -3.9819   -2.3761   -1.9785 C   0  0  0  0  0  0  0  0  0  0  0  0
   -5.1331   -1.8042   -2.4864 C   0  0  0  0  0  0  0  0  0  0  0  0
   -6.2651   -2.5826   -3.0407 C   0  0  0  0  0  0  0  0  0  0  0  0
   -6.8882   -2.5277   -4.2648 C   0  0  0  0  0  0  0  0  0  0  0  0
   -6.9346   -3.5887   -2.3311 C   0  0  0  0  0  0  0  0  0  0  0  0
   -5.2763   -0.4254   -2.4959 C   0  0  0  0  0  0  0  0  0  0  0  0
   -4.2654    0.3775   -2.0023 C   0  0  0  0  0  0  0  0  0  0  0  0
    1.8978    0.3612    0.9052 C   0  0  0  0  0  0  0  0  0  0  0  0
    3.0194    0.9055    1.4843 C   0  0  0  0  0  0  0  0  0  0  0  0
    4.2399    0.2776    2.1198 C   0  0  0  0  0  0  0  0  0  0  0  0
    4.4509    0.8200    3.5312 C   0  0  0  0  0  0  0  0  0  0  0  0
    5.9730    0.7078    3.7643 C   0  0  0  0  0  0  0  0  0  0  0  0
    6.6008    0.8786    2.4195 C   0  0  0  0  0  0  0  0  0  0  0  0
    5.5278    0.6781    1.3461 C   0  0  0  0  0  0  0  0  0  0  0  0
    2.8857    2.2511    1.4092 N   0  0  0  0  0  0  0  0  0  0  0  0
    1.7273    2.6110    0.7995 N   0  0  0  0  0  0  0  0  0  0  0  0
   -0.1269    1.4271   -0.1432 N   0  0  0  0  0  0  0  0  0  0  0  0
   -2.0850    0.6206   -0.9860 N   0  0  0  0  0  0  0  0  0  0  0  0
   -7.8682   -3.4623   -4.2480 N   0  0  0  0  0  0  0  0  0  0  0  0
   -7.9088   -4.1314   -3.0674 N   0  0  0  0  0  0  0  0  0  0  0  0
   -0.4145   -0.8140   -0.3978 O   0  0  0  0  0  0  0  0  0  0  0  0
    4.7989    3.0293    1.6322 H   0  0  0  0  0  0  0  0  0  0  0  0
    3.7016    3.3889    2.9433 H   0  0  0  0  0  0  0  0  0  0  0  0
    3.5407    4.2220    1.4155 H   0  0  0  0  0  0  0  0  0  0  0  0
   -0.5256    2.2966   -0.3563 H   0  0  0  0  0  0  0  0  0  0  0  0
   -2.3021    1.5762   -0.9798 H   0  0  0  0  0  0  0  0  0  0  0  0
   -2.1003   -2.0008   -1.1051 H   0  0  0  0  0  0  0  0  0  0  0  0
   -3.8763   -3.4107   -1.9677 H   0  0  0  0  0  0  0  0  0  0  0  0
   -6.6524   -1.8908   -5.0524 H   0  0  0  0  0  0  0  0  0  0  0  0
   -8.4750   -3.6349   -4.9980 H   0  0  0  0  0  0  0  0  0  0  0  0
   -6.7035   -3.8755   -1.3585 H   0  0  0  0  0  0  0  0  0  0  0  0
   -6.1442    0.0047   -2.8744 H   0  0  0  0  0  0  0  0  0  0  0  0
   -4.3710    1.4121   -2.0131 H   0  0  0  0  0  0  0  0  0  0  0  0
    1.6717   -0.6476    0.7926 H   0  0  0  0  0  0  0  0  0  0  0  0
    4.1260   -0.7861    2.1376 H   0  0  0  0  0  0  0  0  0  0  0  0
    4.1325    1.8395    3.5961 H   0  0  0  0  0  0  0  0  0  0  0  0
    3.9145    0.2321    4.2464 H   0  0  0  0  0  0  0  0  0  0  0  0
    6.2184   -0.2507    4.1716 H   0  0  0  0  0  0  0  0  0  0  0  0
    6.3057    1.4753    4.4316 H   0  0  0  0  0  0  0  0  0  0  0  0
    7.0124    1.8628    2.3371 H   0  0  0  0  0  0  0  0  0  0  0  0
    7.3780    0.1545    2.2908 H   0  0  0  0  0  0  0  0  0  0  0  0
    5.8154   -0.0999    0.6701 H   0  0  0  0  0  0  0  0  0  0  0  0
    5.3700    1.5849    0.8006 H   0  0  0  0  0  0  0  0  0  0  0  0
  1 20  1  0  0  0  0
  1 27  1  0  0  0  0
  1 28  1  0  0  0  0
  1 29  1  0  0  0  0
  2 22  1  0  0  0  0
  2 13  1  0  0  0  0
  2 21  2  0  0  0  0
  3 22  1  0  0  0  0
  3 23  1  0  0  0  0
  3 26  2  0  0  0  0
  4 23  1  0  0  0  0
  4 12  1  0  0  0  0
  4  5  2  0  0  0  0
  5  6  1  0  0  0  0
  5 32  1  0  0  0  0
  6 33  1  0  0  0  0
  6  7  2  0  0  0  0
  7  8  1  0  0  0  0
  7 11  1  0  0  0  0
  8 10  1  0  0  0  0
  8  9  2  0  0  0  0
  9 24  1  0  0  0  0
  9 34  1  0  0  0  0
 10 36  1  0  0  0  0
 10 25  2  0  0  0  0
 11 37  1  0  0  0  0
 11 12  2  0  0  0  0
 12 38  1  0  0  0  0
 13 39  1  0  0  0  0
 13 14  2  0  0  0  0
 14 20  1  0  0  0  0
 14 15  1  0  0  0  0
 15 16  1  0  0  0  0
 15 19  1  0  0  0  0
 15 40  1  0  0  0  0
 16 17  1  0  0  0  0
 16 41  1  0  0  0  0
 16 42  1  0  0  0  0
 17 18  1  0  0  0  0
 17 43  1  0  0  0  0
 17 44  1  0  0  0  0
 18 19  1  0  0  0  0
 18 45  1  0  0  0  0
 18 46  1  0  0  0  0
 19 47  1  0  0  0  0
 19 48  1  0  0  0  0
 20 21  1  0  0  0  0
 22 30  1  0  0  0  0
 23 31  1  0  0  0  0
 24 25  1  0  0  0  0
 24 35  1  0  0  0  0
M  END
>  <score>
0.37111109495162964

$$$$
PV-003889150146
 OpenBabel08202115463D

 50 53  0  0  0  0  0  0  0  0999 V2000
   -0.2899   -0.4228   -0.4149 O   0  0  0  0  0  0  0  0  0  0  0  0
   -7.6830   -1.6671   -3.6118 O   0  0  0  0  0  0  0  0  0  0  0  0
   -0.7211    0.7171   -0.6685 C   0  0  0  0  0  0  0  0  0  0  0  0
   -2.8101   -0.0497   -1.5979 C   0  0  0  0  0  0  0  0  0  0  0  0
   -2.4036   -1.3854   -1.7036 C   0  0  0  0  0  0  0  0  0  0  0  0
   -3.3423   -2.3029   -2.0974 C   0  0  0  0  0  0  0  0  0  0  0  0
   -4.6346   -1.8332   -2.3565 C   0  0  0  0  0  0  0  0  0  0  0  0
   -5.7482   -2.7645   -2.7749 C   0  0  1  0  0  0  0  0  0  0  0  0
   -6.8661   -2.7968   -1.7241 C   0  0  0  0  0  0  0  0  0  0  0  0
   -7.7883   -1.6796   -2.1556 C   0  0  0  0  0  0  0  0  0  0  0  0
   -6.4722   -2.2363   -4.0234 C   0  0  0  0  0  0  0  0  0  0  0  0
    1.2494    1.8909    0.2507 C   0  0  0  0  0  0  0  0  0  0  0  0
    3.1371    1.4070    1.2849 C   0  0  0  0  0  0  0  0  0  0  0  0
    4.3279    0.8320    2.0025 C   0  0  0  0  0  0  0  0  0  0  0  0
    5.6279    1.1825    1.2155 C   0  0  0  0  0  0  0  0  0  0  0  0
    6.8749    0.7620    1.9942 C   0  0  0  0  0  0  0  0  0  0  0  0
    6.9073    1.3481    3.4009 C   0  0  0  0  0  0  0  0  0  0  0  0
    5.6538    1.0070    4.1719 C   0  0  0  0  0  0  0  0  0  0  0  0
    4.4095    1.4265    3.4166 C   0  0  0  0  0  0  0  0  0  0  0  0
    1.9610    0.8431    0.8507 C   0  0  0  0  0  0  0  0  0  0  0  0
   -1.9415    0.9331   -1.2025 N   0  0  0  0  0  0  0  0  0  0  0  0
   -4.9755   -0.5516   -2.2558 N   0  0  0  0  0  0  0  0  0  0  0  0
   -4.0488    0.3524   -1.8698 N   0  0  0  0  0  0  0  0  0  0  0  0
    0.0266    1.8251   -0.4172 N   0  0  0  0  0  0  0  0  0  0  0  0
    1.9399    3.0338    0.3015 N   0  0  0  0  0  0  0  0  0  0  0  0
    3.0924    2.7173    0.9455 N   0  0  0  0  0  0  0  0  0  0  0  0
   -2.2280    1.8634   -1.3160 H   0  0  0  0  0  0  0  0  0  0  0  0
   -1.4263   -1.6704   -1.4911 H   0  0  0  0  0  0  0  0  0  0  0  0
   -3.1033   -3.3098   -2.1998 H   0  0  0  0  0  0  0  0  0  0  0  0
   -5.3504   -3.7431   -2.9449 H   0  0  0  0  0  0  0  0  0  0  0  0
   -6.4758   -2.6137   -0.7448 H   0  0  0  0  0  0  0  0  0  0  0  0
   -7.3746   -3.7382   -1.7357 H   0  0  0  0  0  0  0  0  0  0  0  0
   -8.7941   -1.8792   -1.8501 H   0  0  0  0  0  0  0  0  0  0  0  0
   -7.4690   -0.7447   -1.7446 H   0  0  0  0  0  0  0  0  0  0  0  0
   -5.8691   -1.4967   -4.5073 H   0  0  0  0  0  0  0  0  0  0  0  0
   -6.6617   -3.0421   -4.7015 H   0  0  0  0  0  0  0  0  0  0  0  0
   -0.3356    2.6754   -0.7429 H   0  0  0  0  0  0  0  0  0  0  0  0
    3.8061    3.3597    1.1412 H   0  0  0  0  0  0  0  0  0  0  0  0
    4.2264   -0.2311    2.0680 H   0  0  0  0  0  0  0  0  0  0  0  0
    5.6606    2.2388    1.0481 H   0  0  0  0  0  0  0  0  0  0  0  0
    5.6150    0.6721    0.2751 H   0  0  0  0  0  0  0  0  0  0  0  0
    6.8908   -0.3055    2.0666 H   0  0  0  0  0  0  0  0  0  0  0  0
    7.7410    1.0969    1.4626 H   0  0  0  0  0  0  0  0  0  0  0  0
    7.7542    0.9535    3.9224 H   0  0  0  0  0  0  0  0  0  0  0  0
    6.9943    2.4123    3.3321 H   0  0  0  0  0  0  0  0  0  0  0  0
    5.6761    1.5133    5.1143 H   0  0  0  0  0  0  0  0  0  0  0  0
    5.6222   -0.0500    4.3349 H   0  0  0  0  0  0  0  0  0  0  0  0
    4.4041    2.4935    3.3371 H   0  0  0  0  0  0  0  0  0  0  0  0
    3.5519    1.1051    3.9699 H   0  0  0  0  0  0  0  0  0  0  0  0
    1.6631   -0.1487    0.9468 H   0  0  0  0  0  0  0  0  0  0  0  0
  3 21  1  0  0  0  0
  3 24  1  0  0  0  0
  3  1  2  0  0  0  0
  4 21  1  0  0  0  0
  4 23  1  0  0  0  0
  4  5  2  0  0  0  0
  5  6  1  0  0  0  0
  5 28  1  0  0  0  0
  6 29  1  0  0  0  0
  6  7  2  0  0  0  0
  7  8  1  0  0  0  0
  7 22  1  0  0  0  0
  8  9  1  0  0  0  0
  8 11  1  0  0  0  0
  8 30  1  6  0  0  0
  9 10  1  0  0  0  0
  9 31  1  0  0  0  0
  9 32  1  0  0  0  0
 10  2  1  0  0  0  0
 10 33  1  0  0  0  0
 10 34  1  0  0  0  0
 11  2  1  0  0  0  0
 11 35  1  0  0  0  0
 11 36  1  0  0  0  0
 12 24  1  0  0  0  0
 12 20  1  0  0  0  0
 12 25  2  0  0  0  0
 13 26  1  0  0  0  0
 13 14  1  0  0  0  0
 13 20  2  0  0  0  0
 14 15  1  0  0  0  0
 14 19  1  0  0  0  0
 14 39  1  0  0  0  0
 15 16  1  0  0  0  0
 15 40  1  0  0  0  0
 15 41  1  0  0  0  0
 16 17  1  0  0  0  0
 16 42  1  0  0  0  0
 16 43  1  0  0  0  0
 17 18  1  0  0  0  0
 17 44  1  0  0  0  0
 17 45  1  0  0  0  0
 18 19  1  0  0  0  0
 18 46  1  0  0  0  0
 18 47  1  0  0  0  0
 19 48  1  0  0  0  0
 19 49  1  0  0  0  0
 20 50  1  0  0  0  0
 21 27  1  0  0  0  0
 22 23  2  0  0  0  0
 24 37  1  0  0  0  0
 25 26  1  0  0  0  0
 26 38  1  0  0  0  0
M  END
>  <score>
0.37629026174545288

$$$$
PV-002782192989
 OpenBabel08202115463D

 46 47  0  0  0  0  0  0  0  0999 V2000
   -1.5575    1.6139   -1.1323 C   0  0  0  0  0  0  0  0  0  0  0  0
   -0.0960    0.6338    0.6285 C   0  0  0  0  0  0  0  0  0  0  0  0
    1.2823    0.2391    0.1236 C   0  0  0  0  0  0  0  0  0  0  0  0
    3.0616    1.5912    1.0061 C   0  0  0  0  0  0  0  0  0  0  0  0
    4.1037    1.7966    2.0882 C   0  0  0  0  0  0  0  0  0  0  0  0
    4.2981    0.6087    3.0108 C   0  0  0  0  0  0  0  0  0  0  0  0
    5.5502    0.7084    3.8653 C   0  0  0  0  0  0  0  0  0  0  0  0
    4.2205    3.1709    2.6687 C   0  0  0  0  0  0  0  0  0  0  0  0
    5.2979    2.6467    1.7718 C   0  0  0  0  0  0  0  0  0  0  0  0
   -1.7226   -0.7466   -0.6345 C   0  0  0  0  0  0  0  0  0  0  0  0
   -2.7244   -0.7413   -1.7563 C   0  0  0  0  0  0  0  0  0  0  0  0
   -3.4905   -2.0195   -1.9413 C   0  0  0  0  0  0  0  0  0  0  0  0
   -5.0875   -3.0794   -3.3469 C   0  0  0  0  0  0  0  0  0  0  0  0
   -6.4348   -2.9941   -3.9999 C   0  0  0  0  0  0  0  0  0  0  0  0
   -6.3230   -3.3893   -2.5610 C   0  0  0  0  0  0  0  0  0  0  0  0
   -1.1360    0.4317   -0.3709 N   0  0  0  0  0  0  0  0  0  0  0  0
    2.3228    0.4670    1.1097 N   0  0  0  0  0  0  0  0  0  0  0  0
    2.9135    2.4088    0.0989 O   0  0  0  0  0  0  0  0  0  0  0  0
   -1.4697   -1.7756   -0.0093 O   0  0  0  0  0  0  0  0  0  0  0  0
   -4.3657   -1.8962   -3.0546 O   0  0  0  0  0  0  0  0  0  0  0  0
    5.5725    1.8983    4.4550 F   0  0  0  0  0  0  0  0  0  0  0  0
    6.6201    0.6624    3.0269 F   0  0  0  0  0  0  0  0  0  0  0  0
   -0.7797    2.3484   -1.1113 H   0  0  0  0  0  0  0  0  0  0  0  0
   -2.4448    2.0218   -0.6950 H   0  0  0  0  0  0  0  0  0  0  0  0
   -1.7553    1.3332   -2.1457 H   0  0  0  0  0  0  0  0  0  0  0  0
   -0.3281    0.0422    1.4894 H   0  0  0  0  0  0  0  0  0  0  0  0
   -0.0781    1.6685    0.9004 H   0  0  0  0  0  0  0  0  0  0  0  0
    1.5055    0.8155   -0.7498 H   0  0  0  0  0  0  0  0  0  0  0  0
    1.2704   -0.8008   -0.1282 H   0  0  0  0  0  0  0  0  0  0  0  0
    2.4841   -0.1774    1.8303 H   0  0  0  0  0  0  0  0  0  0  0  0
    4.3643   -0.2770    2.4140 H   0  0  0  0  0  0  0  0  0  0  0  0
    3.4496    0.5401    3.6590 H   0  0  0  0  0  0  0  0  0  0  0  0
    5.5639   -0.0956    4.5711 H   0  0  0  0  0  0  0  0  0  0  0  0
    4.4092    3.2950    3.7146 H   0  0  0  0  0  0  0  0  0  0  0  0
    3.5739    3.9520    2.3272 H   0  0  0  0  0  0  0  0  0  0  0  0
    5.4206    3.0524    0.7893 H   0  0  0  0  0  0  0  0  0  0  0  0
    6.2559    2.3954    2.1767 H   0  0  0  0  0  0  0  0  0  0  0  0
   -2.2000   -0.5361   -2.6662 H   0  0  0  0  0  0  0  0  0  0  0  0
   -3.4290    0.0412   -1.5659 H   0  0  0  0  0  0  0  0  0  0  0  0
   -4.0625   -2.2220   -1.0599 H   0  0  0  0  0  0  0  0  0  0  0  0
   -2.8053   -2.8228   -2.1148 H   0  0  0  0  0  0  0  0  0  0  0  0
   -4.5066   -3.9334   -3.6266 H   0  0  0  0  0  0  0  0  0  0  0  0
   -6.7208   -3.7190   -4.7332 H   0  0  0  0  0  0  0  0  0  0  0  0
   -6.8425   -2.0403   -4.2626 H   0  0  0  0  0  0  0  0  0  0  0  0
   -6.6517   -2.7181   -1.7953 H   0  0  0  0  0  0  0  0  0  0  0  0
   -6.5300   -4.3967   -2.2659 H   0  0  0  0  0  0  0  0  0  0  0  0
  1 16  1  0  0  0  0
  1 23  1  0  0  0  0
  1 24  1  0  0  0  0
  1 25  1  0  0  0  0
  2 16  1  0  0  0  0
  2  3  1  0  0  0  0
  2 26  1  0  0  0  0
  2 27  1  0  0  0  0
  3 17  1  0  0  0  0
  3 28  1  0  0  0  0
  3 29  1  0  0  0  0
  4 17  1  0  0  0  0
  4  5  1  0  0  0  0
  4 18  2  0  0  0  0
  5  6  1  0  0  0  0
  5  8  1  0  0  0  0
  5  9  1  0  0  0  0
  6  7  1  0  0  0  0
  6 31  1  0  0  0  0
  6 32  1  0  0  0  0
  7 21  1  0  0  0  0
  7 22  1  0  0  0  0
  7 33  1  0  0  0  0
  8  9  1  0  0  0  0
  8 34  1  0  0  0  0
  8 35  1  0  0  0  0
  9 36  1  0  0  0  0
  9 37  1  0  0  0  0
 10 16  1  0  0  0  0
 10 11  1  0  0  0  0
 10 19  2  0  0  0  0
 11 12  1  0  0  0  0
 11 38  1  0  0  0  0
 11 39  1  0  0  0  0
 12 20  1  0  0  0  0
 12 40  1  0  0  0  0
 12 41  1  0  0  0  0
 13 20  1  0  0  0  0
 13 14  1  0  0  0  0
 13 15  1  0  0  0  0
 13 42  1  0  0  0  0
 14 15  1  0  0  0  0
 14 43  1  0  0  0  0
 14 44  1  0  0  0  0
 15 45  1  0  0  0  0
 15 46  1  0  0  0  0
 17 30  1  0  0  0  0
M  END
>  <score>
0.37650114297866821

$$$$
Z3337763885
 OpenBabel08202115463D

 46 48  0  0  0  0  0  0  0  0999 V2000
   -2.6864   -2.2869   -1.3891 O   0  0  0  0  0  0  0  0  0  0  0  0
   -0.4406    2.2637   -0.3790 O   0  0  0  0  0  0  0  0  0  0  0  0
    3.6935    3.3287    0.2949 O   0  0  0  0  0  0  0  0  0  0  0  0
   -3.2259   -1.2086   -1.1553 C   0  0  0  0  0  0  0  0  0  0  0  0
   -2.4667   -0.0778   -0.5145 C   0  0  0  0  0  0  0  0  0  0  0  0
   -0.9647   -0.3096   -0.4864 C   0  0  0  0  0  0  0  0  0  0  0  0
    1.5717    0.5427   -0.1806 C   0  0  0  0  0  0  0  0  0  0  0  0
    2.5546    1.5804    0.2778 C   0  0  0  0  0  0  0  0  0  0  0  0
    4.0495    2.6851    1.4099 C   0  0  0  0  0  0  0  0  0  0  0  0
    3.3356    1.5516    1.4438 C   0  0  0  0  0  0  0  0  0  0  0  0
    3.3849    0.4987    2.5278 C   0  0  0  0  0  0  0  0  0  0  0  0
    4.7811   -0.1381    2.3895 C   0  0  0  0  0  0  0  0  0  0  0  0
    5.8511    0.7755    2.9656 C   0  0  0  0  0  0  0  0  0  0  0  0
    6.2116    2.1064    2.3264 C   0  0  0  0  0  0  0  0  0  0  0  0
    5.0589    3.1190    2.4537 C   0  0  0  0  0  0  0  0  0  0  0  0
   -5.4135   -1.7610   -2.1805 C   0  0  0  0  0  0  0  0  0  0  0  0
   -5.1169   -3.0285   -2.6449 C   0  0  0  0  0  0  0  0  0  0  0  0
   -6.0671   -3.7471   -3.3536 C   0  0  0  0  0  0  0  0  0  0  0  0
   -7.3094   -3.1938   -3.6003 C   0  0  0  0  0  0  0  0  0  0  0  0
   -7.6070   -1.9226   -3.1346 C   0  0  0  0  0  0  0  0  0  0  0  0
   -6.6595   -1.2063   -2.4280 C   0  0  0  0  0  0  0  0  0  0  0  0
   -0.0963    0.9958    0.3541 S   0  0  1  0  0  0  0  0  0  0  0  0
    2.8610    2.6986   -0.3258 N   0  0  0  0  0  0  0  0  0  0  0  0
   -4.5287   -0.9530   -1.4507 N   0  0  0  0  0  0  0  0  0  0  0  0
   -8.4931   -4.0879   -4.4905 Cl  0  0  0  0  0  0  0  0  0  0  0  0
   -6.9052    0.0333   -1.9622 F   0  0  0  0  0  0  0  0  0  0  0  0
   -2.8123    0.0375    0.4916 H   0  0  0  0  0  0  0  0  0  0  0  0
   -2.6626    0.8188   -1.0645 H   0  0  0  0  0  0  0  0  0  0  0  0
   -0.6068   -0.3685   -1.4930 H   0  0  0  0  0  0  0  0  0  0  0  0
   -0.7685   -1.2332    0.0171 H   0  0  0  0  0  0  0  0  0  0  0  0
    1.5966    0.4778   -1.2483 H   0  0  0  0  0  0  0  0  0  0  0  0
    1.8341   -0.4051    0.2410 H   0  0  0  0  0  0  0  0  0  0  0  0
    2.6194   -0.2337    2.3777 H   0  0  0  0  0  0  0  0  0  0  0  0
    3.2676    0.9452    3.4932 H   0  0  0  0  0  0  0  0  0  0  0  0
    4.7952   -1.0698    2.9155 H   0  0  0  0  0  0  0  0  0  0  0  0
    4.9871   -0.3096    1.3536 H   0  0  0  0  0  0  0  0  0  0  0  0
    5.5455    0.9984    3.9665 H   0  0  0  0  0  0  0  0  0  0  0  0
    6.7536    0.2010    2.9873 H   0  0  0  0  0  0  0  0  0  0  0  0
    7.0786    2.5028    2.8123 H   0  0  0  0  0  0  0  0  0  0  0  0
    6.4239    1.9488    1.2896 H   0  0  0  0  0  0  0  0  0  0  0  0
    5.4050    4.1116    2.2542 H   0  0  0  0  0  0  0  0  0  0  0  0
    4.6294    3.0805    3.4329 H   0  0  0  0  0  0  0  0  0  0  0  0
   -4.8913   -0.1067   -1.1150 H   0  0  0  0  0  0  0  0  0  0  0  0
   -4.1807   -3.4431   -2.4627 H   0  0  0  0  0  0  0  0  0  0  0  0
   -5.8453   -4.7024   -3.6996 H   0  0  0  0  0  0  0  0  0  0  0  0
   -8.5432   -1.5079   -3.3168 H   0  0  0  0  0  0  0  0  0  0  0  0
  4  5  1  0  0  0  0
  4 24  1  0  0  0  0
  4  1  2  0  0  0  0
  5  6  1  0  0  0  0
  5 27  1  0  0  0  0
  5 28  1  0  0  0  0
  6 22  1  0  0  0  0
  6 29  1  0  0  0  0
  6 30  1  0  0  0  0
  7  8  1  0  0  0  0
  7 31  1  0  0  0  0
  7 32  1  0  0  0  0
  8 10  1  0  0  0  0
  8 23  2  0  0  0  0
  9  3  1  0  0  0  0
  9 15  1  0  0  0  0
  9 10  2  0  0  0  0
 10 11  1  0  0  0  0
 11 12  1  0  0  0  0
 11 33  1  0  0  0  0
 11 34  1  0  0  0  0
 12 13  1  0  0  0  0
 12 35  1  0  0  0  0
 12 36  1  0  0  0  0
 13 14  1  0  0  0  0
 13 37  1  0  0  0  0
 13 38  1  0  0  0  0
 14 15  1  0  0  0  0
 14 39  1  0  0  0  0
 14 40  1  0  0  0  0
 15 41  1  0  0  0  0
 15 42  1  0  0  0  0
 16 24  1  0  0  0  0
 16 21  1  0  0  0  0
 16 17  2  0  0  0  0
 17 18  1  0  0  0  0
 17 44  1  0  0  0  0
 18 45  1  0  0  0  0
 18 19  2  0  0  0  0
 19 25  1  0  0  0  0
 19 20  1  0  0  0  0
 20 46  1  0  0  0  0
 20 21  2  0  0  0  0
 21 26  1  0  0  0  0
 22  7  1  0  0  0  0
 22  2  2  6  0  0  0
 23  3  1  0  0  0  0
 24 43  1  0  0  0  0
M  END
>  <score>
0.37758833169937134

$$$$
PV-003920671125
 OpenBabel08202115463D

 55 57  0  0  0  0  0  0  0  0999 V2000
    6.8714    0.6324    2.0672 C   0  0  0  0  0  0  0  0  0  0  0  0
    5.9312    0.5898    3.2782 C   0  0  1  0  0  0  0  0  0  0  0  0
    5.6841    2.0446    3.7955 C   0  0  0  0  0  0  0  0  0  0  0  0
    4.9676    2.8933    2.7512 C   0  0  0  0  0  0  0  0  0  0  0  0
    3.6299    2.2370    2.2619 C   0  0  0  0  0  0  0  0  0  0  0  0
    3.8700    0.7958    1.8049 C   0  0  2  0  0  0  0  0  0  0  0  0
    2.5351    0.1552    1.5046 C   0  0  0  0  0  0  0  0  0  0  0  0
    1.6027    0.9109    0.5997 C   0  0  0  0  0  0  0  0  0  0  0  0
   -0.5984    0.7307   -0.3953 C   0  0  0  0  0  0  0  0  0  0  0  0
   -1.8835   -0.0420   -0.5711 C   0  0  1  0  0  0  0  0  0  0  0  0
   -2.9056    0.7983   -1.3297 C   0  0  0  0  0  0  0  0  0  0  0  0
   -3.1491    0.0179   -2.6075 C   0  0  0  0  0  0  0  0  0  0  0  0
   -3.9530   -1.9739   -1.5016 C   0  0  0  0  0  0  0  0  0  0  0  0
   -5.2193   -2.0272   -2.3162 C   0  0  0  0  0  0  0  0  0  0  0  0
   -5.4056   -3.1171   -3.1522 C   0  0  0  0  0  0  0  0  0  0  0  0
   -6.5486   -3.2091   -3.9237 C   0  0  0  0  0  0  0  0  0  0  0  0
   -7.5112   -2.2139   -3.8575 C   0  0  0  0  0  0  0  0  0  0  0  0
   -7.3257   -1.1271   -3.0240 C   0  0  0  0  0  0  0  0  0  0  0  0
   -6.1792   -1.0350   -2.2502 C   0  0  0  0  0  0  0  0  0  0  0  0
   -1.6426   -1.2734   -1.4104 C   0  0  0  0  0  0  0  0  0  0  0  0
    4.5926   -0.0484    2.8642 C   0  0  0  0  0  0  0  0  0  0  0  0
    2.2289   -0.9175    1.9705 O   0  0  0  0  0  0  0  0  0  0  0  0
   -0.5367    1.8624   -0.8739 O   0  0  0  0  0  0  0  0  0  0  0  0
    0.3994    0.1489    0.2668 N   0  0  0  0  0  0  0  0  0  0  0  0
   -2.8376   -1.3668   -2.2503 N   0  0  0  0  0  0  0  0  0  0  0  0
   -8.6275   -2.3060   -4.6054 F   0  0  0  0  0  0  0  0  0  0  0  0
    7.7462    1.1969    2.3139 H   0  0  0  0  0  0  0  0  0  0  0  0
    6.3699    1.0945    1.2426 H   0  0  0  0  0  0  0  0  0  0  0  0
    7.1540   -0.3644    1.8001 H   0  0  0  0  0  0  0  0  0  0  0  0
    6.3774    0.0067    4.0565 H   0  0  0  0  0  0  0  0  0  0  0  0
    6.6264    2.4970    4.0245 H   0  0  0  0  0  0  0  0  0  0  0  0
    5.0840    2.0019    4.6804 H   0  0  0  0  0  0  0  0  0  0  0  0
    5.6154    3.0211    1.9092 H   0  0  0  0  0  0  0  0  0  0  0  0
    4.7450    3.8486    3.1788 H   0  0  0  0  0  0  0  0  0  0  0  0
    2.9239    2.2374    3.0659 H   0  0  0  0  0  0  0  0  0  0  0  0
    3.2392    2.8045    1.4432 H   0  0  0  0  0  0  0  0  0  0  0  0
    4.4658    0.8132    0.9163 H   0  0  0  0  0  0  0  0  0  0  0  0
    2.1207    1.1459   -0.3065 H   0  0  0  0  0  0  0  0  0  0  0  0
    1.3100    1.8164    1.0890 H   0  0  0  0  0  0  0  0  0  0  0  0
    0.3275   -0.7919    0.5316 H   0  0  0  0  0  0  0  0  0  0  0  0
   -2.2689   -0.3171    0.3884 H   0  0  0  0  0  0  0  0  0  0  0  0
   -3.8100    0.8965   -0.7663 H   0  0  0  0  0  0  0  0  0  0  0  0
   -2.5128    1.7697   -1.5468 H   0  0  0  0  0  0  0  0  0  0  0  0
   -4.1688    0.1088   -2.9186 H   0  0  0  0  0  0  0  0  0  0  0  0
   -2.5050    0.3614   -3.3899 H   0  0  0  0  0  0  0  0  0  0  0  0
   -4.1335   -1.3937   -0.6208 H   0  0  0  0  0  0  0  0  0  0  0  0
   -3.6797   -2.9703   -1.2231 H   0  0  0  0  0  0  0  0  0  0  0  0
   -4.6852   -3.8658   -3.1988 H   0  0  0  0  0  0  0  0  0  0  0  0
   -6.6864   -4.0248   -4.5539 H   0  0  0  0  0  0  0  0  0  0  0  0
   -8.0461   -0.3785   -2.9773 H   0  0  0  0  0  0  0  0  0  0  0  0
   -6.0413   -0.2193   -1.6200 H   0  0  0  0  0  0  0  0  0  0  0  0
   -0.7640   -1.1590   -2.0103 H   0  0  0  0  0  0  0  0  0  0  0  0
   -1.5429   -2.1413   -0.7927 H   0  0  0  0  0  0  0  0  0  0  0  0
    3.9663   -0.1329    3.7277 H   0  0  0  0  0  0  0  0  0  0  0  0
    4.7812   -1.0222    2.4631 H   0  0  0  0  0  0  0  0  0  0  0  0
  1  2  1  0  0  0  0
  1 27  1  0  0  0  0
  1 28  1  0  0  0  0
  1 29  1  0  0  0  0
  2  3  1  0  0  0  0
  2 21  1  0  0  0  0
  2 30  1  1  0  0  0
  3  4  1  0  0  0  0
  3 31  1  0  0  0  0
  3 32  1  0  0  0  0
  4  5  1  0  0  0  0
  4 33  1  0  0  0  0
  4 34  1  0  0  0  0
  5  6  1  0  0  0  0
  5 35  1  0  0  0  0
  5 36  1  0  0  0  0
  6  7  1  0  0  0  0
  6 21  1  0  0  0  0
  6 37  1  6  0  0  0
  7  8  1  0  0  0  0
  7 22  2  0  0  0  0
  8 24  1  0  0  0  0
  8 38  1  0  0  0  0
  8 39  1  0  0  0  0
  9 24  1  0  0  0  0
  9 10  1  0  0  0  0
  9 23  2  0  0  0  0
 10 11  1  0  0  0  0
 10 20  1  0  0  0  0
 10 41  1  1  0  0  0
 11 12  1  0  0  0  0
 11 42  1  0  0  0  0
 11 43  1  0  0  0  0
 12 25  1  0  0  0  0
 12 44  1  0  0  0  0
 12 45  1  0  0  0  0
 13 25  1  0  0  0  0
 13 14  1  0  0  0  0
 13 46  1  0  0  0  0
 13 47  1  0  0  0  0
 14 19  1  0  0  0  0
 14 15  2  0  0  0  0
 15 16  1  0  0  0  0
 15 48  1  0  0  0  0
 16 49  1  0  0  0  0
 16 17  2  0  0  0  0
 17 26  1  0  0  0  0
 17 18  1  0  0  0  0
 18 50  1  0  0  0  0
 18 19  2  0  0  0  0
 19 51  1  0  0  0  0
 20 25  1  0  0  0  0
 20 52  1  0  0  0  0
 20 53  1  0  0  0  0
 21 54  1  0  0  0  0
 21 55  1  0  0  0  0
 24 40  1  0  0  0  0
M  END
>  <score>
0.37944430112838745

$$$$
Z4005061745
 OpenBabel08202115463D

 45 48  0  0  0  0  0  0  0  0999 V2000
    2.7766    2.8941   -0.6402 C   0  0  0  0  0  0  0  0  0  0  0  0
    2.9516    2.1175    1.6373 C   0  0  1  0  0  0  0  0  0  0  0  0
    1.6756    1.5053    1.1995 C   0  0  0  0  0  0  0  0  0  0  0  0
   -0.2034    0.9927    0.4448 C   0  0  0  0  0  0  0  0  0  0  0  0
   -1.5931    1.1359   -0.1019 C   0  0  0  0  0  0  0  0  0  0  0  0
   -2.2359   -0.1597   -0.5280 C   0  0  0  0  0  0  0  0  0  0  0  0
   -3.3007   -0.3223   -1.3820 C   0  0  0  0  0  0  0  0  0  0  0  0
   -4.5799   -2.3468   -2.1417 C   0  0  0  0  0  0  0  0  0  0  0  0
   -5.7674   -1.6938   -2.4336 C   0  0  0  0  0  0  0  0  0  0  0  0
   -6.7860   -2.3680   -3.0802 C   0  0  0  0  0  0  0  0  0  0  0  0
   -6.6181   -3.6957   -3.4416 C   0  0  0  0  0  0  0  0  0  0  0  0
   -5.4343   -4.3468   -3.1507 C   0  0  0  0  0  0  0  0  0  0  0  0
   -4.4127   -3.6706   -2.5022 C   0  0  0  0  0  0  0  0  0  0  0  0
   -1.8752   -1.4565   -0.1377 C   0  0  0  0  0  0  0  0  0  0  0  0
    3.9124    1.0155    2.0331 C   0  0  1  0  0  0  0  0  0  0  0  0
    5.3397    1.3880    1.6017 C   0  0  0  0  0  0  0  0  0  0  0  0
    6.1747    1.0080    2.8318 C   0  0  0  0  0  0  0  0  0  0  0  0
    5.2142    1.1993    3.9831 C   0  0  0  0  0  0  0  0  0  0  0  0
    3.5030    2.8867    0.5833 O   0  0  0  0  0  0  0  0  0  0  0  0
    1.6259    0.1617    1.1433 O   0  0  0  0  0  0  0  0  0  0  0  0
    3.9090    0.8591    3.4241 O   0  0  0  0  0  0  0  0  0  0  0  0
    0.5885    2.0738    0.7778 N   0  0  0  0  0  0  0  0  0  0  0  0
   -3.5324   -1.6537   -1.4706 N   0  0  0  0  0  0  0  0  0  0  0  0
   -2.6603   -2.3701   -0.7161 N   0  0  0  0  0  0  0  0  0  0  0  0
    0.3520   -0.1732    0.6427 N   0  0  0  0  0  0  0  0  0  0  0  0
    1.9527    3.5724   -0.5624 H   0  0  0  0  0  0  0  0  0  0  0  0
    2.4098    1.9096   -0.8428 H   0  0  0  0  0  0  0  0  0  0  0  0
    3.4211    3.2058   -1.4354 H   0  0  0  0  0  0  0  0  0  0  0  0
    2.7650    2.7347    2.4912 H   0  0  0  0  0  0  0  0  0  0  0  0
   -1.5521    1.7836   -0.9526 H   0  0  0  0  0  0  0  0  0  0  0  0
   -2.2056    1.5791    0.6552 H   0  0  0  0  0  0  0  0  0  0  0  0
   -3.8273    0.4321   -1.8669 H   0  0  0  0  0  0  0  0  0  0  0  0
   -5.8918   -0.6966   -2.1660 H   0  0  0  0  0  0  0  0  0  0  0  0
   -7.6784   -1.8792   -3.2956 H   0  0  0  0  0  0  0  0  0  0  0  0
   -7.3831   -4.2018   -3.9318 H   0  0  0  0  0  0  0  0  0  0  0  0
   -5.3099   -5.3441   -3.4183 H   0  0  0  0  0  0  0  0  0  0  0  0
   -3.5204   -4.1593   -2.2868 H   0  0  0  0  0  0  0  0  0  0  0  0
   -1.0980   -1.6788    0.5167 H   0  0  0  0  0  0  0  0  0  0  0  0
    3.6185    0.0998    1.5639 H   0  0  0  0  0  0  0  0  0  0  0  0
    5.6417    0.8266    0.7423 H   0  0  0  0  0  0  0  0  0  0  0  0
    5.4181    2.4340    1.3906 H   0  0  0  0  0  0  0  0  0  0  0  0
    7.0238    1.6516    2.9312 H   0  0  0  0  0  0  0  0  0  0  0  0
    6.5024   -0.0089    2.7722 H   0  0  0  0  0  0  0  0  0  0  0  0
    5.2280    2.2136    4.3234 H   0  0  0  0  0  0  0  0  0  0  0  0
    5.4606    0.5469    4.7946 H   0  0  0  0  0  0  0  0  0  0  0  0
  1 19  1  0  0  0  0
  1 26  1  0  0  0  0
  1 27  1  0  0  0  0
  1 28  1  0  0  0  0
  2 19  1  0  0  0  0
  2  3  1  0  0  0  0
  2 15  1  0  0  0  0
  2 29  1  1  0  0  0
  3 20  1  0  0  0  0
  3 22  2  0  0  0  0
  4 22  1  0  0  0  0
  4  5  1  0  0  0  0
  4 25  2  0  0  0  0
  5  6  1  0  0  0  0
  5 30  1  0  0  0  0
  5 31  1  0  0  0  0
  6 14  1  0  0  0  0
  6  7  2  0  0  0  0
  7 23  1  0  0  0  0
  7 32  1  0  0  0  0
  8 23  1  0  0  0  0
  8 13  1  0  0  0  0
  8  9  2  0  0  0  0
  9 10  1  0  0  0  0
  9 33  1  0  0  0  0
 10 34  1  0  0  0  0
 10 11  2  0  0  0  0
 11 12  1  0  0  0  0
 11 35  1  0  0  0  0
 12 36  1  0  0  0  0
 12 13  2  0  0  0  0
 13 37  1  0  0  0  0
 14 38  1  0  0  0  0
 14 24  2  0  0  0  0
 15 16  1  0  0  0  0
 15 21  1  0  0  0  0
 15 39  1  6  0  0  0
 16 17  1  0  0  0  0
 16 40  1  0  0  0  0
 16 41  1  0  0  0  0
 17 18  1  0  0  0  0
 17 42  1  0  0  0  0
 17 43  1  0  0  0  0
 18 21  1  0  0  0  0
 18 44  1  0  0  0  0
 18 45  1  0  0  0  0
 23 24  1  0  0  0  0
 25 20  1  0  0  0  0
M  END
>  <score>
0.38015460968017578

$$$$
Z4148166241
 OpenBabel08202115463D

 47 49  0  0  0  0  0  0  0  0999 V2000
    6.1831    1.6128    1.4748 C   0  0  0  0  0  0  0  0  0  0  0  0
    5.0674    1.9637    2.4614 C   0  0  0  0  0  0  0  0  0  0  0  0
    5.3839    3.3237    3.0934 C   0  0  0  0  0  0  0  0  0  0  0  0
    5.0455    0.8965    3.5590 C   0  0  0  0  0  0  0  0  0  0  0  0
    3.7274    2.0336    1.7679 C   0  0  0  0  0  0  0  0  0  0  0  0
    3.2437    0.9312    1.0807 C   0  0  0  0  0  0  0  0  0  0  0  0
    2.0199    0.9977    0.4419 C   0  0  0  0  0  0  0  0  0  0  0  0
    1.2737    2.1648    0.4929 C   0  0  0  0  0  0  0  0  0  0  0  0
   -0.6125    0.5630   -0.9308 C   0  0  0  0  0  0  0  0  0  0  0  0
   -1.9818    0.3107   -1.4909 C   0  0  0  0  0  0  0  0  0  0  0  0
   -3.4107   -1.3869   -2.4061 C   0  0  1  0  0  0  0  0  0  0  0  0
   -3.5003   -2.8891   -2.7772 C   0  0  0  0  0  0  0  0  0  0  0  0
   -4.6000   -3.1019   -1.6733 C   0  0  1  0  0  0  0  0  0  0  0  0
   -6.7092   -4.4926   -1.8092 C   0  0  0  0  0  0  0  0  0  0  0  0
   -7.5857   -3.5043   -3.4113 C   0  0  0  0  0  0  0  0  0  0  0  0
   -4.5103   -1.5997   -1.3023 C   0  0  0  0  0  0  0  0  0  0  0  0
    1.7562    3.2639    1.1781 C   0  0  0  0  0  0  0  0  0  0  0  0
    2.9836    3.1974    1.8188 C   0  0  0  0  0  0  0  0  0  0  0  0
   -0.3319    2.1987   -0.2154 S   0  0  0  0  0  0  0  0  0  0  0  0
   -2.8527    1.1268   -1.5856 O   0  0  0  0  0  0  0  0  0  0  0  0
   -2.1130   -0.9787   -1.8834 O   0  0  0  0  0  0  0  0  0  0  0  0
   -5.8992   -3.5106   -2.1966 N   0  0  0  0  0  0  0  0  0  0  0  0
   -7.7962   -4.5224   -2.5581 N   0  0  0  0  0  0  0  0  0  0  0  0
   -6.4541   -2.8453   -3.2443 N   0  0  0  0  0  0  0  0  0  0  0  0
    6.3206    2.4221    0.7885 H   0  0  0  0  0  0  0  0  0  0  0  0
    5.9160    0.7287    0.9344 H   0  0  0  0  0  0  0  0  0  0  0  0
    7.0929    1.4422    2.0115 H   0  0  0  0  0  0  0  0  0  0  0  0
    6.3522    3.2899    3.5475 H   0  0  0  0  0  0  0  0  0  0  0  0
    4.6491    3.5506    3.8374 H   0  0  0  0  0  0  0  0  0  0  0  0
    5.3712    4.0800    2.3366 H   0  0  0  0  0  0  0  0  0  0  0  0
    6.0281    0.7838    3.9673 H   0  0  0  0  0  0  0  0  0  0  0  0
    4.7231   -0.0354    3.1436 H   0  0  0  0  0  0  0  0  0  0  0  0
    4.3699    1.1953    4.3331 H   0  0  0  0  0  0  0  0  0  0  0  0
    3.8016    0.0542    1.0458 H   0  0  0  0  0  0  0  0  0  0  0  0
    1.6587    0.1719   -0.0771 H   0  0  0  0  0  0  0  0  0  0  0  0
   -0.4342   -0.1629   -0.1652 H   0  0  0  0  0  0  0  0  0  0  0  0
    0.0941    0.4277   -1.7228 H   0  0  0  0  0  0  0  0  0  0  0  0
   -3.7035   -0.7237   -3.1931 H   0  0  0  0  0  0  0  0  0  0  0  0
   -2.5969   -3.4356   -2.6036 H   0  0  0  0  0  0  0  0  0  0  0  0
   -3.8425   -3.0721   -3.7743 H   0  0  0  0  0  0  0  0  0  0  0  0
   -4.3072   -3.7652   -0.8863 H   0  0  0  0  0  0  0  0  0  0  0  0
   -6.5131   -5.1465   -1.0247 H   0  0  0  0  0  0  0  0  0  0  0  0
   -8.2693   -3.2528   -4.1536 H   0  0  0  0  0  0  0  0  0  0  0  0
   -4.1681   -1.4166   -0.3051 H   0  0  0  0  0  0  0  0  0  0  0  0
   -5.4137   -1.0531   -1.4758 H   0  0  0  0  0  0  0  0  0  0  0  0
    1.1983    4.1409    1.2130 H   0  0  0  0  0  0  0  0  0  0  0  0
    3.3448    4.0231    2.3378 H   0  0  0  0  0  0  0  0  0  0  0  0
  1  2  1  0  0  0  0
  1 25  1  0  0  0  0
  1 26  1  0  0  0  0
  1 27  1  0  0  0  0
  2  3  1  0  0  0  0
  2  4  1  0  0  0  0
  2  5  1  0  0  0  0
  3 28  1  0  0  0  0
  3 29  1  0  0  0  0
  3 30  1  0  0  0  0
  4 31  1  0  0  0  0
  4 32  1  0  0  0  0
  4 33  1  0  0  0  0
  5 18  1  0  0  0  0
  5  6  2  0  0  0  0
  6  7  1  0  0  0  0
  6 34  1  0  0  0  0
  7 35  1  0  0  0  0
  7  8  2  0  0  0  0
  8 19  1  0  0  0  0
  8 17  1  0  0  0  0
  9 19  1  0  0  0  0
  9 10  1  0  0  0  0
  9 36  1  0  0  0  0
  9 37  1  0  0  0  0
 10 21  1  0  0  0  0
 10 20  2  0  0  0  0
 11 21  1  0  0  0  0
 11 12  1  0  0  0  0
 11 16  1  0  0  0  0
 11 38  1  6  0  0  0
 12 13  1  0  0  0  0
 12 39  1  0  0  0  0
 12 40  1  0  0  0  0
 13 22  1  0  0  0  0
 13 16  1  0  0  0  0
 13 41  1  1  0  0  0
 14 22  1  0  0  0  0
 14 42  1  0  0  0  0
 14 23  2  0  0  0  0
 15 23  1  0  0  0  0
 15 43  1  0  0  0  0
 15 24  2  0  0  0  0
 16 44  1  0  0  0  0
 16 45  1  0  0  0  0
 17 46  1  0  0  0  0
 17 18  2  0  0  0  0
 18 47  1  0  0  0  0
 22 24  1  0  0  0  0
M  END
>  <score>
0.38099688291549683

$$$$
Z3555800106
 OpenBabel08202115463D

 51 54  0  0  0  0  0  0  0  0999 V2000
    3.1783    1.7175    4.1919 C   0  0  0  0  0  0  0  0  0  0  0  0
    4.2057    1.4671    2.0618 C   0  0  0  0  0  0  0  0  0  0  0  0
    2.8686    1.2950    1.4019 C   0  0  0  0  0  0  0  0  0  0  0  0
    2.2693    0.0526    1.2892 C   0  0  0  0  0  0  0  0  0  0  0  0
    1.0396   -0.0376    0.6667 C   0  0  0  0  0  0  0  0  0  0  0  0
    0.4555    1.1172    0.1800 C   0  0  0  0  0  0  0  0  0  0  0  0
   -0.8284    1.1138   -0.4891 C   0  0  0  0  0  0  0  0  0  0  0  0
   -2.6698    0.7004   -1.3842 C   0  0  0  0  0  0  0  0  0  0  0  0
   -3.7469   -0.0926   -2.0158 C   0  0  0  0  0  0  0  0  0  0  0  0
   -4.8917    0.5014   -2.5127 C   0  0  0  0  0  0  0  0  0  0  0  0
   -5.8761   -0.2760   -3.1025 C   0  0  0  0  0  0  0  0  0  0  0  0
   -5.7153   -1.6460   -3.1889 C   0  0  0  0  0  0  0  0  0  0  0  0
   -6.8760   -3.7965   -3.7157 C   0  0  0  0  0  0  0  0  0  0  0  0
   -6.1847   -4.5220   -2.5836 C   0  0  0  0  0  0  0  0  0  0  0  0
   -4.5672   -2.2420   -2.6906 C   0  0  0  0  0  0  0  0  0  0  0  0
   -3.5857   -1.4667   -2.1026 C   0  0  0  0  0  0  0  0  0  0  0  0
    1.1223    2.3171    0.3386 C   0  0  0  0  0  0  0  0  0  0  0  0
    5.1543    2.1652    1.0897 C   0  0  0  0  0  0  0  0  0  0  0  0
    6.5664    2.1831    1.6681 C   0  0  0  0  0  0  0  0  0  0  0  0
    6.1720    0.2279    2.9795 C   0  0  0  0  0  0  0  0  0  0  0  0
    4.7364    0.1065    2.4645 C   0  0  0  0  0  0  0  0  0  0  0  0
    4.0612    2.2680    3.2212 O   0  0  0  0  0  0  0  0  0  0  0  0
   -7.5481   -4.4118   -4.5423 O   0  0  0  0  0  0  0  0  0  0  0  0
   -1.5056    2.2749   -0.5533 O   0  0  0  0  0  0  0  0  0  0  0  0
    6.9921    0.8645    1.9871 O   0  0  0  0  0  0  0  0  0  0  0  0
   -1.4908    0.1097   -0.9747 N   0  0  0  0  0  0  0  0  0  0  0  0
   -6.7325   -2.4481   -3.7919 N   0  0  0  0  0  0  0  0  0  0  0  0
   -2.7409    1.9867   -1.1671 N   0  0  0  0  0  0  0  0  0  0  0  0
    2.3118    2.4231    0.9387 N   0  0  0  0  0  0  0  0  0  0  0  0
    3.6977    1.5973    5.1197 H   0  0  0  0  0  0  0  0  0  0  0  0
    2.8266    0.7651    3.8543 H   0  0  0  0  0  0  0  0  0  0  0  0
    2.3469    2.3763    4.3317 H   0  0  0  0  0  0  0  0  0  0  0  0
    2.7360   -0.7970    1.6661 H   0  0  0  0  0  0  0  0  0  0  0  0
    0.5625   -0.9561    0.5660 H   0  0  0  0  0  0  0  0  0  0  0  0
   -5.0145    1.5319   -2.4440 H   0  0  0  0  0  0  0  0  0  0  0  0
   -6.7357    0.1715   -3.4799 H   0  0  0  0  0  0  0  0  0  0  0  0
   -7.4043   -1.9700   -4.3216 H   0  0  0  0  0  0  0  0  0  0  0  0
   -6.2763   -3.9499   -1.6841 H   0  0  0  0  0  0  0  0  0  0  0  0
   -5.1492   -4.6490   -2.8214 H   0  0  0  0  0  0  0  0  0  0  0  0
   -6.6393   -5.4805   -2.4443 H   0  0  0  0  0  0  0  0  0  0  0  0
   -4.4444   -3.2725   -2.7593 H   0  0  0  0  0  0  0  0  0  0  0  0
   -2.7261   -1.9142   -1.7251 H   0  0  0  0  0  0  0  0  0  0  0  0
    0.6757    3.1820   -0.0278 H   0  0  0  0  0  0  0  0  0  0  0  0
    4.8231    3.1700    0.9303 H   0  0  0  0  0  0  0  0  0  0  0  0
    5.1589    1.6386    0.1583 H   0  0  0  0  0  0  0  0  0  0  0  0
    6.5752    2.7801    2.5561 H   0  0  0  0  0  0  0  0  0  0  0  0
    7.2362    2.6044    0.9478 H   0  0  0  0  0  0  0  0  0  0  0  0
    6.5587   -0.7480    3.1871 H   0  0  0  0  0  0  0  0  0  0  0  0
    6.1798    0.8130    3.8753 H   0  0  0  0  0  0  0  0  0  0  0  0
    4.7199   -0.5442    1.6153 H   0  0  0  0  0  0  0  0  0  0  0  0
    4.1174   -0.2992    3.2373 H   0  0  0  0  0  0  0  0  0  0  0  0
  1 22  1  0  0  0  0
  1 30  1  0  0  0  0
  1 31  1  0  0  0  0
  1 32  1  0  0  0  0
  2 22  1  0  0  0  0
  2  3  1  0  0  0  0
  2 18  1  0  0  0  0
  2 21  1  0  0  0  0
  3 29  1  0  0  0  0
  3  4  2  0  0  0  0
  4  5  1  0  0  0  0
  4 33  1  0  0  0  0
  5 34  1  0  0  0  0
  5  6  2  0  0  0  0
  6  7  1  0  0  0  0
  6 17  1  0  0  0  0
  7 24  1  0  0  0  0
  7 26  2  0  0  0  0
  8 26  1  0  0  0  0
  8  9  1  0  0  0  0
  8 28  2  0  0  0  0
  9 16  1  0  0  0  0
  9 10  2  0  0  0  0
 10 11  1  0  0  0  0
 10 35  1  0  0  0  0
 11 36  1  0  0  0  0
 11 12  2  0  0  0  0
 12 27  1  0  0  0  0
 12 15  1  0  0  0  0
 13 27  1  0  0  0  0
 13 14  1  0  0  0  0
 13 23  2  0  0  0  0
 14 38  1  0  0  0  0
 14 39  1  0  0  0  0
 14 40  1  0  0  0  0
 15 41  1  0  0  0  0
 15 16  2  0  0  0  0
 16 42  1  0  0  0  0
 17 43  1  0  0  0  0
 17 29  2  0  0  0  0
 18 19  1  0  0  0  0
 18 44  1  0  0  0  0
 18 45  1  0  0  0  0
 19 25  1  0  0  0  0
 19 46  1  0  0  0  0
 19 47  1  0  0  0  0
 20 25  1  0  0  0  0
 20 21  1  0  0  0  0
 20 48  1  0  0  0  0
 20 49  1  0  0  0  0
 21 50  1  0  0  0  0
 21 51  1  0  0  0  0
 27 37  1  0  0  0  0
 28 24  1  0  0  0  0
M  END
>  <score>
0.38786435127258301

$$$$
PV-003767031362
 OpenBabel08202115463D

 55 57  0  0  0  0  0  0  0  0999 V2000
   -3.0022    0.3504   -0.4617 O   0  0  0  0  0  0  0  0  0  0  0  0
    2.4981    1.0298    3.2952 O   0  0  0  0  0  0  0  0  0  0  0  0
   -2.3185   -0.5710   -0.8766 C   0  0  0  0  0  0  0  0  0  0  0  0
   -2.9452   -1.7913   -1.4964 C   0  0  0  0  0  0  0  0  0  0  0  0
   -4.4429   -1.6402   -1.7286 C   0  0  0  0  0  0  0  0  0  0  0  0
   -5.0976   -2.8977   -2.2712 C   0  0  0  0  0  0  0  0  0  0  0  0
   -6.5014   -2.6740   -2.8923 C   0  0  0  0  0  0  0  0  0  0  0  0
   -5.8594   -2.7060   -4.2870 C   0  0  0  0  0  0  0  0  0  0  0  0
   -4.5985   -3.3263   -3.6649 C   0  0  0  0  0  0  0  0  0  0  0  0
   -0.1934    0.6184   -0.3221 C   0  0  0  0  0  0  0  0  0  0  0  0
    1.1112    0.1462    0.2904 C   0  0  0  0  0  0  0  0  0  0  0  0
    2.0219    1.3231    0.5901 C   0  0  0  0  0  0  0  0  0  0  0  0
    3.4359    0.8933    2.5110 C   0  0  0  0  0  0  0  0  0  0  0  0
    4.8622    0.7911    3.0424 C   0  0  0  0  0  0  0  0  0  0  0  0
    5.8122    1.9048    2.6460 C   0  0  0  0  0  0  0  0  0  0  0  0
    5.2697    3.2928    2.9414 C   0  0  0  0  0  0  0  0  0  0  0  0
    5.3327   -0.6290    3.0732 C   0  0  0  0  0  0  0  0  0  0  0  0
    4.9631    0.0676    4.3487 C   0  0  0  0  0  0  0  0  0  0  0  0
   -0.0435    1.7648   -1.3541 C   0  0  0  0  0  0  0  0  0  0  0  0
   -1.2376    2.4831   -0.6842 C   0  0  0  0  0  0  0  0  0  0  0  0
   -1.0022    1.6026    0.5620 C   0  0  0  0  0  0  0  0  0  0  0  0
   -0.9775   -0.5713   -0.8154 N   0  0  0  0  0  0  0  0  0  0  0  0
    3.2874    0.9135    1.1777 N   0  0  0  0  0  0  0  0  0  0  0  0
    4.2165    3.5420    2.1347 F   0  0  0  0  0  0  0  0  0  0  0  0
    6.2077    4.2185    2.6476 F   0  0  0  0  0  0  0  0  0  0  0  0
   -2.7839   -2.6249   -0.8453 H   0  0  0  0  0  0  0  0  0  0  0  0
   -2.4716   -1.9765   -2.4378 H   0  0  0  0  0  0  0  0  0  0  0  0
   -4.5992   -0.8469   -2.4294 H   0  0  0  0  0  0  0  0  0  0  0  0
   -4.9071   -1.3908   -0.7974 H   0  0  0  0  0  0  0  0  0  0  0  0
   -5.0587   -3.6687   -1.5304 H   0  0  0  0  0  0  0  0  0  0  0  0
   -6.9523   -1.7380   -2.6363 H   0  0  0  0  0  0  0  0  0  0  0  0
   -7.1958   -3.4671   -2.7087 H   0  0  0  0  0  0  0  0  0  0  0  0
   -5.7060   -1.7411   -4.7233 H   0  0  0  0  0  0  0  0  0  0  0  0
   -6.3614   -3.3393   -4.9883 H   0  0  0  0  0  0  0  0  0  0  0  0
   -4.5191   -4.3852   -3.7965 H   0  0  0  0  0  0  0  0  0  0  0  0
   -3.6844   -2.8593   -3.9669 H   0  0  0  0  0  0  0  0  0  0  0  0
   -0.4912   -1.3727   -1.1013 H   0  0  0  0  0  0  0  0  0  0  0  0
    1.6027   -0.5120   -0.3952 H   0  0  0  0  0  0  0  0  0  0  0  0
    0.9026   -0.3767    1.2003 H   0  0  0  0  0  0  0  0  0  0  0  0
    1.5225    1.9777    1.2735 H   0  0  0  0  0  0  0  0  0  0  0  0
    2.2206    1.8442   -0.3231 H   0  0  0  0  0  0  0  0  0  0  0  0
    4.0334    0.6517    0.5986 H   0  0  0  0  0  0  0  0  0  0  0  0
    6.0018    1.8312    1.5956 H   0  0  0  0  0  0  0  0  0  0  0  0
    6.7281    1.7770    3.1842 H   0  0  0  0  0  0  0  0  0  0  0  0
    4.9880    3.3402    3.9725 H   0  0  0  0  0  0  0  0  0  0  0  0
    6.3572   -0.8578    2.8660 H   0  0  0  0  0  0  0  0  0  0  0  0
    4.7080   -1.4080    2.6887 H   0  0  0  0  0  0  0  0  0  0  0  0
    4.0746   -0.2142    4.8742 H   0  0  0  0  0  0  0  0  0  0  0  0
    5.7239    0.3360    5.0516 H   0  0  0  0  0  0  0  0  0  0  0  0
   -0.2183    1.4709   -2.3680 H   0  0  0  0  0  0  0  0  0  0  0  0
    0.8828    2.2966   -1.2909 H   0  0  0  0  0  0  0  0  0  0  0  0
   -1.0910    3.5305   -0.5216 H   0  0  0  0  0  0  0  0  0  0  0  0
   -2.1788    2.3250   -1.1680 H   0  0  0  0  0  0  0  0  0  0  0  0
   -0.4301    2.0744    1.3333 H   0  0  0  0  0  0  0  0  0  0  0  0
   -1.8939    1.1865    0.9824 H   0  0  0  0  0  0  0  0  0  0  0  0
  3  4  1  0  0  0  0
  3 22  1  0  0  0  0
  3  1  2  0  0  0  0
  4  5  1  0  0  0  0
  4 26  1  0  0  0  0
  4 27  1  0  0  0  0
  5  6  1  0  0  0  0
  5 28  1  0  0  0  0
  5 29  1  0  0  0  0
  6  7  1  0  0  0  0
  6  9  1  0  0  0  0
  6 30  1  0  0  0  0
  7  8  1  0  0  0  0
  7 31  1  0  0  0  0
  7 32  1  0  0  0  0
  8  9  1  0  0  0  0
  8 33  1  0  0  0  0
  8 34  1  0  0  0  0
  9 35  1  0  0  0  0
  9 36  1  0  0  0  0
 10 22  1  0  0  0  0
 10 11  1  0  0  0  0
 10 19  1  0  0  0  0
 10 21  1  0  0  0  0
 11 12  1  0  0  0  0
 11 38  1  0  0  0  0
 11 39  1  0  0  0  0
 12 23  1  0  0  0  0
 12 40  1  0  0  0  0
 12 41  1  0  0  0  0
 13 23  1  0  0  0  0
 13 14  1  0  0  0  0
 13  2  2  0  0  0  0
 14 15  1  0  0  0  0
 14 17  1  0  0  0  0
 14 18  1  0  0  0  0
 15 16  1  0  0  0  0
 15 43  1  0  0  0  0
 15 44  1  0  0  0  0
 16 24  1  0  0  0  0
 16 25  1  0  0  0  0
 16 45  1  0  0  0  0
 17 18  1  0  0  0  0
 17 46  1  0  0  0  0
 17 47  1  0  0  0  0
 18 48  1  0  0  0  0
 18 49  1  0  0  0  0
 19 20  1  0  0  0  0
 19 50  1  0  0  0  0
 19 51  1  0  0  0  0
 20 21  1  0  0  0  0
 20 52  1  0  0  0  0
 20 53  1  0  0  0  0
 21 54  1  0  0  0  0
 21 55  1  0  0  0  0
 22 37  1  0  0  0  0
 23 42  1  0  0  0  0
M  END
>  <score>
0.39390385150909424

$$$$
Z3591965974
 OpenBabel08202115463D

 46 49  0  0  0  0  0  0  0  0999 V2000
    4.9590   -0.5912    3.4270 C   0  0  0  0  0  0  0  0  0  0  0  0
    4.3338    0.5411    2.6164 C   0  0  0  0  0  0  0  0  0  0  0  0
    2.3694    0.7846    1.1050 C   0  0  0  0  0  0  0  0  0  0  0  0
    0.1839    0.7708   -0.0701 C   0  0  0  0  0  0  0  0  0  0  0  0
    0.2237    2.0890   -0.4971 C   0  0  0  0  0  0  0  0  0  0  0  0
   -0.8252    2.6099   -1.2310 C   0  0  0  0  0  0  0  0  0  0  0  0
   -1.9148    1.8124   -1.5446 C   0  0  0  0  0  0  0  0  0  0  0  0
   -1.9547    0.4981   -1.1190 C   0  0  0  0  0  0  0  0  0  0  0  0
   -3.1518   -0.2939   -1.4852 C   0  0  0  0  0  0  0  0  0  0  0  0
   -4.3720   -0.0266   -0.8784 C   0  0  0  0  0  0  0  0  0  0  0  0
   -5.5173   -0.7482   -1.2051 C   0  0  0  0  0  0  0  0  0  0  0  0
   -5.3823   -1.7482   -2.1486 C   0  0  0  0  0  0  0  0  0  0  0  0
   -5.8807   -3.5168   -3.5223 C   0  0  0  0  0  0  0  0  0  0  0  0
   -4.3894   -3.1703   -3.7507 C   0  0  0  0  0  0  0  0  0  0  0  0
   -4.1832   -2.0383   -2.7652 C   0  0  0  0  0  0  0  0  0  0  0  0
   -3.0514   -1.3064   -2.4385 C   0  0  0  0  0  0  0  0  0  0  0  0
   -0.9026   -0.0242   -0.3830 C   0  0  0  0  0  0  0  0  0  0  0  0
    5.3262    1.2982    1.7309 C   0  0  0  0  0  0  0  0  0  0  0  0
    4.0809    1.8193    3.4194 C   0  0  0  0  0  0  0  0  0  0  0  0
    3.1618    0.0419    1.9061 N   0  0  0  0  0  0  0  0  0  0  0  0
    1.2205    0.1912    0.6835 N   0  0  0  0  0  0  0  0  0  0  0  0
    2.6546    1.9306    0.7671 O   0  0  0  0  0  0  0  0  0  0  0  0
   -6.4233   -2.5547   -2.5566 O   0  0  0  0  0  0  0  0  0  0  0  0
    6.0556    3.7196    2.9056 O   0  0  0  0  0  0  0  0  0  0  0  0
    6.7983    1.8057    4.0440 O   0  0  0  0  0  0  0  0  0  0  0  0
    5.8018    2.3259    3.1484 S   0  0  0  0  0  0  0  0  0  0  0  0
    5.6790   -0.1877    4.1079 H   0  0  0  0  0  0  0  0  0  0  0  0
    5.4414   -1.2794    2.7647 H   0  0  0  0  0  0  0  0  0  0  0  0
    4.1949   -1.1002    3.9765 H   0  0  0  0  0  0  0  0  0  0  0  0
    2.9324   -0.9042    2.0191 H   0  0  0  0  0  0  0  0  0  0  0  0
    1.1011   -0.7487    0.9337 H   0  0  0  0  0  0  0  0  0  0  0  0
    1.0430    2.6861   -0.2652 H   0  0  0  0  0  0  0  0  0  0  0  0
   -0.7971    3.6001   -1.5478 H   0  0  0  0  0  0  0  0  0  0  0  0
   -2.7023    2.2032   -2.1003 H   0  0  0  0  0  0  0  0  0  0  0  0
   -4.4317    0.7281   -0.1653 H   0  0  0  0  0  0  0  0  0  0  0  0
   -6.4339   -0.5434   -0.7585 H   0  0  0  0  0  0  0  0  0  0  0  0
   -6.4160   -3.4460   -4.4461 H   0  0  0  0  0  0  0  0  0  0  0  0
   -5.9679   -4.5101   -3.1342 H   0  0  0  0  0  0  0  0  0  0  0  0
   -4.2132   -2.8491   -4.7560 H   0  0  0  0  0  0  0  0  0  0  0  0
   -3.7566   -4.0033   -3.5257 H   0  0  0  0  0  0  0  0  0  0  0  0
   -2.1409   -1.5099   -2.8980 H   0  0  0  0  0  0  0  0  0  0  0  0
   -0.9307   -1.0144   -0.0661 H   0  0  0  0  0  0  0  0  0  0  0  0
    6.1189    0.6917    1.3453 H   0  0  0  0  0  0  0  0  0  0  0  0
    4.8707    1.8422    0.9300 H   0  0  0  0  0  0  0  0  0  0  0  0
    3.3580    2.4751    2.9809 H   0  0  0  0  0  0  0  0  0  0  0  0
    3.8320    1.6485    4.4459 H   0  0  0  0  0  0  0  0  0  0  0  0
  1  2  1  0  0  0  0
  1 27  1  0  0  0  0
  1 28  1  0  0  0  0
  1 29  1  0  0  0  0
  2 20  1  0  0  0  0
  2 18  1  0  0  0  0
  2 19  1  0  0  0  0
  3 20  1  0  0  0  0
  3 21  1  0  0  0  0
  3 22  2  0  0  0  0
  4 21  1  0  0  0  0
  4 17  1  0  0  0  0
  4  5  2  0  0  0  0
  5  6  1  0  0  0  0
  5 32  1  0  0  0  0
  6 33  1  0  0  0  0
  6  7  2  0  0  0  0
  7  8  1  0  0  0  0
  7 34  1  0  0  0  0
  8  9  1  0  0  0  0
  8 17  2  0  0  0  0
  9 16  1  0  0  0  0
  9 10  2  0  0  0  0
 10 11  1  0  0  0  0
 10 35  1  0  0  0  0
 11 36  1  0  0  0  0
 11 12  2  0  0  0  0
 12 23  1  0  0  0  0
 12 15  1  0  0  0  0
 13 23  1  0  0  0  0
 13 14  1  0  0  0  0
 13 37  1  0  0  0  0
 13 38  1  0  0  0  0
 14 15  1  0  0  0  0
 14 39  1  0  0  0  0
 14 40  1  0  0  0  0
 15 16  2  0  0  0  0
 16 41  1  0  0  0  0
 17 42  1  0  0  0  0
 18 43  1  0  0  0  0
 18 44  1  0  0  0  0
 19 45  1  0  0  0  0
 19 46  1  0  0  0  0
 20 30  1  0  0  0  0
 21 31  1  0  0  0  0
 26 18  1  0  0  0  0
 26 19  1  0  0  0  0
 26 24  2  0  0  0  0
 26 25  2  0  0  0  0
M  END
>  <score>
0.39404278993606567

$$$$
PV-003645778613
 OpenBabel08202115463D

 52 55  0  0  0  0  0  0  0  0999 V2000
    5.4301    3.0508    2.1152 C   0  0  0  0  0  0  0  0  0  0  0  0
    5.0697    1.5702    1.9751 C   0  0  0  0  0  0  0  0  0  0  0  0
    5.4854    1.0711    0.5848 C   0  0  0  0  0  0  0  0  0  0  0  0
    5.5835    0.6711    3.1586 C   0  0  2  0  0  0  0  0  0  0  0  0
    4.1171    0.3397    3.5360 C   0  0  0  0  0  0  0  0  0  0  0  0
    3.6034    1.2388    2.3525 C   0  0  2  0  0  0  0  0  0  0  0  0
    2.8441    0.4798    1.2818 C   0  0  0  0  0  0  0  0  0  0  0  0
    0.6127    0.6010    0.1000 C   0  0  0  0  0  0  0  0  0  0  0  0
   -0.4682    1.4545   -0.0575 C   0  0  0  0  0  0  0  0  0  0  0  0
   -1.6338    0.9936   -0.6399 C   0  0  0  0  0  0  0  0  0  0  0  0
   -1.7200   -0.3209   -1.0713 C   0  0  0  0  0  0  0  0  0  0  0  0
   -2.9999   -0.8350   -1.6118 C   0  0  0  0  0  0  0  0  0  0  0  0
   -3.2573   -2.1291   -1.9040 C   0  0  0  0  0  0  0  0  0  0  0  0
   -5.2782   -3.3417   -2.8534 C   0  0  0  0  0  0  0  0  0  0  0  0
   -6.7736   -3.0523   -2.9062 C   0  0  0  0  0  0  0  0  0  0  0  0
   -7.0138   -1.7367   -3.6300 C   0  0  0  0  0  0  0  0  0  0  0  0
   -6.4040   -0.5577   -2.8299 C   0  0  0  0  0  0  0  0  0  0  0  0
   -5.0187   -0.8987   -2.3613 C   0  0  0  0  0  0  0  0  0  0  0  0
   -0.6425   -1.1721   -0.9144 C   0  0  0  0  0  0  0  0  0  0  0  0
    0.5265   -0.7097   -0.3303 C   0  0  0  0  0  0  0  0  0  0  0  0
    6.2988    1.3860    4.1672 O   0  0  0  0  0  0  0  0  0  0  0  0
    3.2200   -0.6259    0.8948 O   0  0  0  0  0  0  0  0  0  0  0  0
    2.7973    2.4298    2.7906 N   0  0  0  0  0  0  0  0  0  0  0  0
    1.7467    1.0947    0.7941 N   0  0  0  0  0  0  0  0  0  0  0  0
   -4.5399   -2.1695   -2.3817 N   0  0  0  0  0  0  0  0  0  0  0  0
   -4.1085   -0.0662   -1.8928 N   0  0  0  0  0  0  0  0  0  0  0  0
    4.9670    3.6072    1.3272 H   0  0  0  0  0  0  0  0  0  0  0  0
    6.4922    3.1662    2.0564 H   0  0  0  0  0  0  0  0  0  0  0  0
    5.0830    3.4142    3.0598 H   0  0  0  0  0  0  0  0  0  0  0  0
    4.6587    1.1604   -0.0887 H   0  0  0  0  0  0  0  0  0  0  0  0
    5.7838    0.0455    0.6488 H   0  0  0  0  0  0  0  0  0  0  0  0
    6.3035    1.6594    0.2248 H   0  0  0  0  0  0  0  0  0  0  0  0
    6.1572   -0.1766    2.8468 H   0  0  0  0  0  0  0  0  0  0  0  0
    5.7047    1.6009    4.8900 H   0  0  0  0  0  0  0  0  0  0  0  0
    3.8651   -0.6956    3.4380 H   0  0  0  0  0  0  0  0  0  0  0  0
    3.8272    0.6877    4.5054 H   0  0  0  0  0  0  0  0  0  0  0  0
    3.3019    2.9382    3.4595 H   0  0  0  0  0  0  0  0  0  0  0  0
    1.9516    2.1258    3.1813 H   0  0  0  0  0  0  0  0  0  0  0  0
    1.7301    2.0624    0.9481 H   0  0  0  0  0  0  0  0  0  0  0  0
   -0.4020    2.4418    0.2626 H   0  0  0  0  0  0  0  0  0  0  0  0
   -2.4460    1.6329   -0.7543 H   0  0  0  0  0  0  0  0  0  0  0  0
   -2.6096   -2.9346   -1.7889 H   0  0  0  0  0  0  0  0  0  0  0  0
   -4.9361   -3.6009   -3.8336 H   0  0  0  0  0  0  0  0  0  0  0  0
   -5.1023   -4.1593   -2.1859 H   0  0  0  0  0  0  0  0  0  0  0  0
   -7.1587   -2.9859   -1.9101 H   0  0  0  0  0  0  0  0  0  0  0  0
   -7.2708   -3.8422   -3.4294 H   0  0  0  0  0  0  0  0  0  0  0  0
   -8.0669   -1.5815   -3.7379 H   0  0  0  0  0  0  0  0  0  0  0  0
   -6.5580   -1.7788   -4.5971 H   0  0  0  0  0  0  0  0  0  0  0  0
   -7.0218   -0.3520   -1.9809 H   0  0  0  0  0  0  0  0  0  0  0  0
   -6.3598    0.3077   -3.4576 H   0  0  0  0  0  0  0  0  0  0  0  0
   -0.7087   -2.1594   -1.2345 H   0  0  0  0  0  0  0  0  0  0  0  0
    1.3388   -1.3490   -0.2158 H   0  0  0  0  0  0  0  0  0  0  0  0
  1  2  1  0  0  0  0
  1 27  1  0  0  0  0
  1 28  1  0  0  0  0
  1 29  1  0  0  0  0
  2  3  1  0  0  0  0
  2  4  1  0  0  0  0
  2  6  1  0  0  0  0
  3 30  1  0  0  0  0
  3 31  1  0  0  0  0
  3 32  1  0  0  0  0
  4 21  1  0  0  0  0
  4  5  1  0  0  0  0
  4 33  1  6  0  0  0
  5  6  1  0  0  0  0
  5 35  1  0  0  0  0
  5 36  1  0  0  0  0
  6 23  1  0  0  0  0
  6  7  1  6  0  0  0
  7 24  1  0  0  0  0
  7 22  2  0  0  0  0
  8 24  1  0  0  0  0
  8 20  1  0  0  0  0
  8  9  2  0  0  0  0
  9 10  1  0  0  0  0
  9 40  1  0  0  0  0
 10 41  1  0  0  0  0
 10 11  2  0  0  0  0
 11 12  1  0  0  0  0
 11 19  1  0  0  0  0
 12 26  1  0  0  0  0
 12 13  2  0  0  0  0
 13 25  1  0  0  0  0
 13 42  1  0  0  0  0
 14 25  1  0  0  0  0
 14 15  1  0  0  0  0
 14 43  1  0  0  0  0
 14 44  1  0  0  0  0
 15 16  1  0  0  0  0
 15 45  1  0  0  0  0
 15 46  1  0  0  0  0
 16 17  1  0  0  0  0
 16 47  1  0  0  0  0
 16 48  1  0  0  0  0
 17 18  1  0  0  0  0
 17 49  1  0  0  0  0
 17 50  1  0  0  0  0
 18 25  1  0  0  0  0
 18 26  2  0  0  0  0
 19 51  1  0  0  0  0
 19 20  2  0  0  0  0
 20 52  1  0  0  0  0
 21 34  1  0  0  0  0
 23 37  1  0  0  0  0
 23 38  1  0  0  0  0
 24 39  1  0  0  0  0
M  END
>  <score>
0.39460933208465576

$$$$
PV-003099371994
 OpenBabel08202115463D

 43 46  0  0  0  0  0  0  0  0999 V2000
    5.7558   -0.3420    3.3653 C   0  0  0  0  0  0  0  0  0  0  0  0
    5.2738    1.8485    2.5035 C   0  0  0  0  0  0  0  0  0  0  0  0
    3.9183    1.8234    1.8215 C   0  0  0  0  0  0  0  0  0  0  0  0
    2.8949    2.7749    1.9212 C   0  0  0  0  0  0  0  0  0  0  0  0
    1.6593    2.4762    1.3451 C   0  0  0  0  0  0  0  0  0  0  0  0
    1.4405    1.2657    0.7138 C   0  0  0  0  0  0  0  0  0  0  0  0
    0.0918    0.9540    0.1865 C   0  0  0  0  0  0  0  0  0  0  0  0
   -0.5810    1.8248   -0.6566 C   0  0  0  0  0  0  0  0  0  0  0  0
   -1.8407    1.5000   -1.1233 C   0  0  0  0  0  0  0  0  0  0  0  0
   -2.4291    0.3009   -0.7527 C   0  0  0  0  0  0  0  0  0  0  0  0
   -3.7981   -0.0451   -1.2712 C   0  0  0  0  0  0  0  0  0  0  0  0
   -4.9575   -1.7949   -2.5677 C   0  0  0  0  0  0  0  0  0  0  0  0
   -6.2420   -1.2830   -2.5050 C   0  0  0  0  0  0  0  0  0  0  0  0
   -6.9984   -3.0497   -3.7286 C   0  0  0  0  0  0  0  0  0  0  0  0
   -5.7139   -3.5615   -3.7914 C   0  0  0  0  0  0  0  0  0  0  0  0
   -1.7585   -0.5674    0.0879 C   0  0  0  0  0  0  0  0  0  0  0  0
   -0.4951   -0.2415    0.5559 C   0  0  0  0  0  0  0  0  0  0  0  0
    2.4676    0.3317    0.5644 C   0  0  0  0  0  0  0  0  0  0  0  0
    3.7095    0.6338    1.1114 C   0  0  0  0  0  0  0  0  0  0  0  0
    4.9705   -0.2193    1.1042 C   0  0  0  0  0  0  0  0  0  0  0  0
    5.7604    0.4903    2.1369 N   0  0  0  0  0  0  0  0  0  0  0  0
   -3.8419   -1.1995   -1.9890 N   0  0  0  0  0  0  0  0  0  0  0  0
   -7.2746   -1.9073   -3.0863 N   0  0  0  0  0  0  0  0  0  0  0  0
   -4.6814   -2.9372   -3.2100 N   0  0  0  0  0  0  0  0  0  0  0  0
   -4.7651    0.6710   -1.0485 O   0  0  0  0  0  0  0  0  0  0  0  0
    6.0885    0.2451    4.1957 H   0  0  0  0  0  0  0  0  0  0  0  0
    6.4124   -1.1764    3.2329 H   0  0  0  0  0  0  0  0  0  0  0  0
    4.7632   -0.6947    3.5531 H   0  0  0  0  0  0  0  0  0  0  0  0
    5.9044    2.6178    2.1092 H   0  0  0  0  0  0  0  0  0  0  0  0
    5.1849    1.9676    3.5631 H   0  0  0  0  0  0  0  0  0  0  0  0
    3.0516    3.6789    2.4110 H   0  0  0  0  0  0  0  0  0  0  0  0
    0.8908    3.1754    1.3913 H   0  0  0  0  0  0  0  0  0  0  0  0
   -0.1378    2.7226   -0.9379 H   0  0  0  0  0  0  0  0  0  0  0  0
   -2.3471    2.1552   -1.7526 H   0  0  0  0  0  0  0  0  0  0  0  0
   -2.9888   -1.6657   -2.1125 H   0  0  0  0  0  0  0  0  0  0  0  0
   -6.4093   -0.3927   -1.9943 H   0  0  0  0  0  0  0  0  0  0  0  0
   -7.7715   -3.5672   -4.1937 H   0  0  0  0  0  0  0  0  0  0  0  0
   -5.5465   -4.4519   -4.3020 H   0  0  0  0  0  0  0  0  0  0  0  0
   -2.2017   -1.4652    0.3691 H   0  0  0  0  0  0  0  0  0  0  0  0
    0.0112   -0.8967    1.1852 H   0  0  0  0  0  0  0  0  0  0  0  0
    2.3083   -0.5632    0.0590 H   0  0  0  0  0  0  0  0  0  0  0  0
    5.4563   -0.2031    0.1509 H   0  0  0  0  0  0  0  0  0  0  0  0
    4.7675   -1.2317    1.3845 H   0  0  0  0  0  0  0  0  0  0  0  0
  1 21  1  0  0  0  0
  1 26  1  0  0  0  0
  1 27  1  0  0  0  0
  1 28  1  0  0  0  0
  2 21  1  0  0  0  0
  2  3  1  0  0  0  0
  2 29  1  0  0  0  0
  2 30  1  0  0  0  0
  3 19  1  0  0  0  0
  3  4  2  0  0  0  0
  4  5  1  0  0  0  0
  4 31  1  0  0  0  0
  5 32  1  0  0  0  0
  5  6  2  0  0  0  0
  6  7  1  0  0  0  0
  6 18  1  0  0  0  0
  7 17  1  0  0  0  0
  7  8  2  0  0  0  0
  8  9  1  0  0  0  0
  8 33  1  0  0  0  0
  9 34  1  0  0  0  0
  9 10  2  0  0  0  0
 10 11  1  0  0  0  0
 10 16  1  0  0  0  0
 11 22  1  0  0  0  0
 11 25  2  0  0  0  0
 12 22  1  0  0  0  0
 12 24  1  0  0  0  0
 12 13  2  0  0  0  0
 13 23  1  0  0  0  0
 13 36  1  0  0  0  0
 14 15  1  0  0  0  0
 14 37  1  0  0  0  0
 14 23  2  0  0  0  0
 15 38  1  0  0  0  0
 15 24  2  0  0  0  0
 16 39  1  0  0  0  0
 16 17  2  0  0  0  0
 17 40  1  0  0  0  0
 18 41  1  0  0  0  0
 18 19  2  0  0  0  0
 19 20  1  0  0  0  0
 20 21  1  0  0  0  0
 20 42  1  0  0  0  0
 20 43  1  0  0  0  0
 22 35  1  0  0  0  0
M  END
>  <score>
0.39511722326278687

$$$$
PV-004089270932
 OpenBabel08202115463D

 50 52  0  0  0  0  0  0  0  0999 V2000
   -5.8543   -4.5526   -3.4135 C   0  0  0  0  0  0  0  0  0  0  0  0
   -6.2855   -3.8639   -2.1289 C   0  0  0  0  0  0  0  0  0  0  0  0
   -6.4590   -2.3777   -2.2866 C   0  0  0  0  0  0  0  0  0  0  0  0
   -5.5156   -1.3032   -2.1321 C   0  0  0  0  0  0  0  0  0  0  0  0
   -4.0714   -1.3715   -1.7507 C   0  0  0  0  0  0  0  0  0  0  0  0
   -2.0179   -0.1255   -1.2917 C   0  0  1  0  0  0  0  0  0  0  0  0
   -1.3687    1.2517   -1.5819 C   0  0  0  0  0  0  0  0  0  0  0  0
   -1.1034    1.4567   -0.0456 C   0  0  1  0  0  0  0  0  0  0  0  0
    1.0234    2.6808    0.3133 C   0  0  0  0  0  0  0  0  0  0  0  0
    2.4192    2.5028    0.6855 C   0  0  0  0  0  0  0  0  0  0  0  0
    3.0744    1.3159    0.9501 C   0  0  0  0  0  0  0  0  0  0  0  0
    4.4061    1.6228    1.2653 C   0  0  0  0  0  0  0  0  0  0  0  0
    5.4924    0.6354    1.6212 C   0  0  0  0  0  0  0  0  0  0  0  0
    5.3208    0.7913    4.0800 C   0  0  0  0  0  0  0  0  0  0  0  0
    7.4277    0.1225    2.9960 C   0  0  0  0  0  0  0  0  0  0  0  0
    4.5420    3.0023    1.1899 C   0  0  0  0  0  0  0  0  0  0  0  0
   -1.7525    0.0795    0.2447 C   0  0  0  0  0  0  0  0  0  0  0  0
   -7.6141   -1.8903   -2.6141 N   0  0  0  0  0  0  0  0  0  0  0  0
   -6.1258   -0.1754   -2.3863 N   0  0  0  0  0  0  0  0  0  0  0  0
   -3.4269   -0.2058   -1.6466 N   0  0  0  0  0  0  0  0  0  0  0  0
    0.3064    1.5370    0.3095 N   0  0  0  0  0  0  0  0  0  0  0  0
    6.1849    0.9292    2.8919 N   0  0  0  0  0  0  0  0  0  0  0  0
    3.3332    3.5216    0.8368 N   0  0  0  0  0  0  0  0  0  0  0  0
   -7.4339   -0.5192   -2.6841 O   0  0  0  0  0  0  0  0  0  0  0  0
   -3.5268   -2.4486   -1.5487 O   0  0  0  0  0  0  0  0  0  0  0  0
    0.5725    3.7837    0.0343 O   0  0  0  0  0  0  0  0  0  0  0  0
   -4.9589   -4.0959   -3.7804 H   0  0  0  0  0  0  0  0  0  0  0  0
   -6.6286   -4.4580   -4.1459 H   0  0  0  0  0  0  0  0  0  0  0  0
   -5.6718   -5.5888   -3.2185 H   0  0  0  0  0  0  0  0  0  0  0  0
   -5.5419   -4.0425   -1.3806 H   0  0  0  0  0  0  0  0  0  0  0  0
   -7.2177   -4.2841   -1.8136 H   0  0  0  0  0  0  0  0  0  0  0  0
   -3.9202    0.6241   -1.8152 H   0  0  0  0  0  0  0  0  0  0  0  0
   -1.4941   -0.9548   -1.7192 H   0  0  0  0  0  0  0  0  0  0  0  0
   -0.4794    1.1983   -2.1745 H   0  0  0  0  0  0  0  0  0  0  0  0
   -2.0392    1.9686   -2.0079 H   0  0  0  0  0  0  0  0  0  0  0  0
   -1.6272    2.2860    0.3820 H   0  0  0  0  0  0  0  0  0  0  0  0
    0.7638    0.7079    0.5619 H   0  0  0  0  0  0  0  0  0  0  0  0
    2.6551    0.3646    0.9207 H   0  0  0  0  0  0  0  0  0  0  0  0
    6.2184    0.6378    0.8352 H   0  0  0  0  0  0  0  0  0  0  0  0
    5.0508   -0.3363    1.6967 H   0  0  0  0  0  0  0  0  0  0  0  0
    5.9044    0.9368    4.9649 H   0  0  0  0  0  0  0  0  0  0  0  0
    4.8889   -0.1876    4.0948 H   0  0  0  0  0  0  0  0  0  0  0  0
    4.5425    1.5245    4.0417 H   0  0  0  0  0  0  0  0  0  0  0  0
    8.0000    0.2307    2.0983 H   0  0  0  0  0  0  0  0  0  0  0  0
    7.1734   -0.9076    3.1346 H   0  0  0  0  0  0  0  0  0  0  0  0
    8.0050    0.4633    3.8299 H   0  0  0  0  0  0  0  0  0  0  0  0
    5.4118    3.5430    1.3708 H   0  0  0  0  0  0  0  0  0  0  0  0
    3.1431    4.4746    0.7098 H   0  0  0  0  0  0  0  0  0  0  0  0
   -1.0820   -0.6373    0.6707 H   0  0  0  0  0  0  0  0  0  0  0  0
   -2.6418    0.1330    0.8373 H   0  0  0  0  0  0  0  0  0  0  0  0
  1  2  1  0  0  0  0
  1 27  1  0  0  0  0
  1 28  1  0  0  0  0
  1 29  1  0  0  0  0
  2  3  1  0  0  0  0
  2 30  1  0  0  0  0
  2 31  1  0  0  0  0
  3  4  1  0  0  0  0
  3 18  2  0  0  0  0
  4  5  1  0  0  0  0
  4 19  2  0  0  0  0
  5 20  1  0  0  0  0
  5 25  2  0  0  0  0
  6 20  1  0  0  0  0
  6  7  1  0  0  0  0
  6 17  1  0  0  0  0
  6 33  1  6  0  0  0
  7  8  1  0  0  0  0
  7 34  1  0  0  0  0
  7 35  1  0  0  0  0
  8 21  1  0  0  0  0
  8 17  1  0  0  0  0
  8 36  1  1  0  0  0
  9 21  1  0  0  0  0
  9 10  1  0  0  0  0
  9 26  2  0  0  0  0
 10 23  1  0  0  0  0
 10 11  2  0  0  0  0
 11 12  1  0  0  0  0
 11 38  1  0  0  0  0
 12 13  1  0  0  0  0
 12 16  2  0  0  0  0
 13 22  1  0  0  0  0
 13 39  1  0  0  0  0
 13 40  1  0  0  0  0
 14 22  1  0  0  0  0
 14 41  1  0  0  0  0
 14 42  1  0  0  0  0
 14 43  1  0  0  0  0
 15 22  1  0  0  0  0
 15 44  1  0  0  0  0
 15 45  1  0  0  0  0
 15 46  1  0  0  0  0
 16 23  1  0  0  0  0
 16 47  1  0  0  0  0
 17 49  1  0  0  0  0
 17 50  1  0  0  0  0
 18 24  1  0  0  0  0
 19 24  1  0  0  0  0
 20 32  1  0  0  0  0
 21 37  1  0  0  0  0
 23 48  1  0  0  0  0
M  END
>  <score>
0.39556485414505005

$$$$
Z4225771952
 OpenBabel08202115463D

 42 43  0  0  0  0  0  0  0  0999 V2000
   -5.1942    0.2913   -1.2712 C   0  0  0  0  0  0  0  0  0  0  0  0
   -4.7385   -0.9344   -2.0081 C   0  0  0  0  0  0  0  0  0  0  0  0
   -3.4471   -1.2243   -2.3270 C   0  0  0  0  0  0  0  0  0  0  0  0
   -2.0643    0.6824   -1.5644 C   0  0  0  0  0  0  0  0  0  0  0  0
   -0.7914    0.9436   -0.8523 C   0  0  0  0  0  0  0  0  0  0  0  0
   -0.2847   -0.0614   -0.0517 C   0  0  0  0  0  0  0  0  0  0  0  0
    0.9018    0.1610    0.6224 C   0  0  0  0  0  0  0  0  0  0  0  0
    1.5369    1.3783    0.4660 C   0  0  0  0  0  0  0  0  0  0  0  0
    2.8080    1.6768    1.1553 C   0  0  0  0  0  0  0  0  0  0  0  0
    4.5799    0.7585    2.5245 C   0  0  0  0  0  0  0  0  0  0  0  0
    4.1336    1.7204    3.6135 C   0  0  0  0  0  0  0  0  0  0  0  0
    5.6424    1.3838    1.6559 C   0  0  0  0  0  0  0  0  0  0  0  0
    5.0130   -0.5670    3.1176 C   0  0  0  0  0  0  0  0  0  0  0  0
   -0.0916    2.1337   -0.9490 C   0  0  0  0  0  0  0  0  0  0  0  0
   -5.1032   -2.8458   -3.0236 C   0  0  0  0  0  0  0  0  0  0  0  0
   -5.8609   -4.0152   -3.5762 C   0  0  0  0  0  0  0  0  0  0  0  0
   -2.2517   -0.6127   -1.8963 N   0  0  0  0  0  0  0  0  0  0  0  0
    1.0618    2.3614   -0.3048 N   0  0  0  0  0  0  0  0  0  0  0  0
   -5.6755   -1.8522   -2.4039 N   0  0  0  0  0  0  0  0  0  0  0  0
   -2.8509    1.5812   -1.8128 O   0  0  0  0  0  0  0  0  0  0  0  0
    3.3244    2.7637    1.1953 O   0  0  0  0  0  0  0  0  0  0  0  0
    3.3346    0.5772    1.7448 O   0  0  0  0  0  0  0  0  0  0  0  0
   -3.3853   -2.7189   -3.1656 S   0  0  0  0  0  0  0  0  0  0  0  0
   -7.1422   -3.7388   -3.8253 F   0  0  0  0  0  0  0  0  0  0  0  0
   -5.8988   -5.0366   -2.7191 F   0  0  0  0  0  0  0  0  0  0  0  0
   -5.3395   -4.5004   -4.6839 F   0  0  0  0  0  0  0  0  0  0  0  0
   -4.8069    1.1635   -1.7550 H   0  0  0  0  0  0  0  0  0  0  0  0
   -4.8369    0.2545   -0.2632 H   0  0  0  0  0  0  0  0  0  0  0  0
   -6.2635    0.3295   -1.2700 H   0  0  0  0  0  0  0  0  0  0  0  0
   -1.4662   -1.1950   -1.8303 H   0  0  0  0  0  0  0  0  0  0  0  0
   -0.7860   -0.9678    0.0424 H   0  0  0  0  0  0  0  0  0  0  0  0
    1.3086   -0.5739    1.2355 H   0  0  0  0  0  0  0  0  0  0  0  0
    3.6469    2.5629    3.1683 H   0  0  0  0  0  0  0  0  0  0  0  0
    4.9868    2.0531    4.1668 H   0  0  0  0  0  0  0  0  0  0  0  0
    3.4528    1.2224    4.2718 H   0  0  0  0  0  0  0  0  0  0  0  0
    5.8780    0.7227    0.8481 H   0  0  0  0  0  0  0  0  0  0  0  0
    6.5215    1.5607    2.2397 H   0  0  0  0  0  0  0  0  0  0  0  0
    5.2815    2.3115    1.2635 H   0  0  0  0  0  0  0  0  0  0  0  0
    4.1592   -1.2008    3.2371 H   0  0  0  0  0  0  0  0  0  0  0  0
    5.4683   -0.3989    4.0712 H   0  0  0  0  0  0  0  0  0  0  0  0
    5.7172   -1.0371    2.4634 H   0  0  0  0  0  0  0  0  0  0  0  0
   -0.4795    2.8881   -1.5508 H   0  0  0  0  0  0  0  0  0  0  0  0
  1  2  1  0  0  0  0
  1 27  1  0  0  0  0
  1 28  1  0  0  0  0
  1 29  1  0  0  0  0
  2 19  1  0  0  0  0
  2  3  2  0  0  0  0
  3 17  1  0  0  0  0
  3 23  1  0  0  0  0
  4 17  1  0  0  0  0
  4  5  1  0  0  0  0
  4 20  2  0  0  0  0
  5 14  1  0  0  0  0
  5  6  2  0  0  0  0
  6  7  1  0  0  0  0
  6 31  1  0  0  0  0
  7 32  1  0  0  0  0
  7  8  2  0  0  0  0
  8  9  1  0  0  0  0
  8 18  1  0  0  0  0
  9 22  1  0  0  0  0
  9 21  2  0  0  0  0
 10 22  1  0  0  0  0
 10 11  1  0  0  0  0
 10 12  1  0  0  0  0
 10 13  1  0  0  0  0
 11 33  1  0  0  0  0
 11 34  1  0  0  0  0
 11 35  1  0  0  0  0
 12 36  1  0  0  0  0
 12 37  1  0  0  0  0
 12 38  1  0  0  0  0
 13 39  1  0  0  0  0
 13 40  1  0  0  0  0
 13 41  1  0  0  0  0
 14 42  1  0  0  0  0
 14 18  2  0  0  0  0
 15 23  1  0  0  0  0
 15 16  1  0  0  0  0
 15 19  2  0  0  0  0
 16 24  1  0  0  0  0
 16 25  1  0  0  0  0
 16 26  1  0  0  0  0
 17 30  1  0  0  0  0
M  END
>  <score>
0.39563566446304321

$$$$
Z4481750903
 OpenBabel08202115463D

 45 46  0  0  0  0  0  0  0  0999 V2000
   -7.4781   -2.6982   -3.9191 C   0  0  0  0  0  0  0  0  0  0  0  0
   -5.1984   -2.6086   -3.2971 C   0  0  0  0  0  0  0  0  0  0  0  0
   -4.0627   -1.6741   -2.9624 C   0  0  0  0  0  0  0  0  0  0  0  0
   -1.6863   -0.6138   -0.4895 C   0  0  0  0  0  0  0  0  0  0  0  0
   -1.8400    0.5513   -1.2171 C   0  0  0  0  0  0  0  0  0  0  0  0
   -0.8559    1.5269   -1.1790 C   0  0  0  0  0  0  0  0  0  0  0  0
    0.2812    1.3323   -0.4178 C   0  0  0  0  0  0  0  0  0  0  0  0
    0.4351    0.1638    0.3118 C   0  0  0  0  0  0  0  0  0  0  0  0
    2.5329    1.0209    1.3291 C   0  0  0  0  0  0  0  0  0  0  0  0
    3.6683    0.5333    2.1944 C   0  0  0  0  0  0  0  0  0  0  0  0
    4.6385    1.6517    2.6155 C   0  0  0  0  0  0  0  0  0  0  0  0
    5.7194    1.0719    3.5376 C   0  0  0  0  0  0  0  0  0  0  0  0
    5.1614    2.5300    1.4672 C   0  0  0  0  0  0  0  0  0  0  0  0
    3.9699    2.9409    3.1216 C   0  0  0  0  0  0  0  0  0  0  0  0
   -0.5459   -0.8090    0.2740 C   0  0  0  0  0  0  0  0  0  0  0  0
   -6.3051   -1.9311   -3.6056 O   0  0  0  0  0  0  0  0  0  0  0  0
   -5.1522   -3.8027   -3.2245 O   0  0  0  0  0  0  0  0  0  0  0  0
   -2.4617   -2.9826    0.2003 O   0  0  0  0  0  0  0  0  0  0  0  0
   -4.1756   -1.2328   -0.1631 O   0  0  0  0  0  0  0  0  0  0  0  0
    4.5426    3.7137    2.0399 O   0  0  0  0  0  0  0  0  0  0  0  0
   -3.1017   -2.3345   -2.0793 N   0  0  0  0  0  0  0  0  0  0  0  0
    1.5435   -0.0240    1.0595 N   0  0  0  0  0  0  0  0  0  0  0  0
   -2.9405   -1.8516   -0.5323 S   0  0  0  0  0  0  0  0  0  0  0  0
   -7.2941   -3.2925   -4.7897 H   0  0  0  0  0  0  0  0  0  0  0  0
   -8.2974   -2.0360   -4.1063 H   0  0  0  0  0  0  0  0  0  0  0  0
   -7.7166   -3.3375   -3.0950 H   0  0  0  0  0  0  0  0  0  0  0  0
   -4.4530   -0.8066   -2.4725 H   0  0  0  0  0  0  0  0  0  0  0  0
   -3.5686   -1.3824   -3.8656 H   0  0  0  0  0  0  0  0  0  0  0  0
   -2.5522   -3.0710   -2.4202 H   0  0  0  0  0  0  0  0  0  0  0  0
   -2.6938    0.6959   -1.7930 H   0  0  0  0  0  0  0  0  0  0  0  0
   -0.9733    2.4053   -1.7233 H   0  0  0  0  0  0  0  0  0  0  0  0
    1.0213    2.0626   -0.3925 H   0  0  0  0  0  0  0  0  0  0  0  0
    1.6948   -0.9125    1.4446 H   0  0  0  0  0  0  0  0  0  0  0  0
    2.0464    1.8332    1.8275 H   0  0  0  0  0  0  0  0  0  0  0  0
    2.9338    1.3620    0.3975 H   0  0  0  0  0  0  0  0  0  0  0  0
    4.2180   -0.2049    1.6487 H   0  0  0  0  0  0  0  0  0  0  0  0
    3.2563    0.0913    3.0775 H   0  0  0  0  0  0  0  0  0  0  0  0
    5.4476    0.0779    3.8256 H   0  0  0  0  0  0  0  0  0  0  0  0
    5.8089    1.6840    4.4107 H   0  0  0  0  0  0  0  0  0  0  0  0
    6.6553    1.0496    3.0196 H   0  0  0  0  0  0  0  0  0  0  0  0
    6.2288    2.5833    1.4170 H   0  0  0  0  0  0  0  0  0  0  0  0
    4.7717    2.2616    0.5075 H   0  0  0  0  0  0  0  0  0  0  0  0
    2.9006    2.9057    3.1060 H   0  0  0  0  0  0  0  0  0  0  0  0
    4.3031    3.2461    4.0916 H   0  0  0  0  0  0  0  0  0  0  0  0
   -0.4285   -1.6874    0.8182 H   0  0  0  0  0  0  0  0  0  0  0  0
  1 16  1  0  0  0  0
  1 24  1  0  0  0  0
  1 25  1  0  0  0  0
  1 26  1  0  0  0  0
  2 16  1  0  0  0  0
  2  3  1  0  0  0  0
  2 17  2  0  0  0  0
  3 21  1  0  0  0  0
  3 27  1  0  0  0  0
  3 28  1  0  0  0  0
  4 15  1  0  0  0  0
  4  5  2  0  0  0  0
  5  6  1  0  0  0  0
  5 30  1  0  0  0  0
  6 31  1  0  0  0  0
  6  7  2  0  0  0  0
  7  8  1  0  0  0  0
  7 32  1  0  0  0  0
  8 22  1  0  0  0  0
  8 15  2  0  0  0  0
  9 22  1  0  0  0  0
  9 10  1  0  0  0  0
  9 34  1  0  0  0  0
  9 35  1  0  0  0  0
 10 11  1  0  0  0  0
 10 36  1  0  0  0  0
 10 37  1  0  0  0  0
 11 12  1  0  0  0  0
 11 13  1  0  0  0  0
 11 14  1  0  0  0  0
 12 38  1  0  0  0  0
 12 39  1  0  0  0  0
 12 40  1  0  0  0  0
 13 20  1  0  0  0  0
 13 41  1  0  0  0  0
 13 42  1  0  0  0  0
 14 20  1  0  0  0  0
 14 43  1  0  0  0  0
 14 44  1  0  0  0  0
 15 45  1  0  0  0  0
 21 29  1  0  0  0  0
 22 33  1  0  0  0  0
 23 21  1  0  0  0  0
 23  4  1  0  0  0  0
 23 18  2  0  0  0  0
 23 19  2  0  0  0  0
M  END
>  <score>
0.39581352472305298

$$$$
Z3384184298
 OpenBabel08202115463D

 44 44  0  0  0  0  0  0  0  0999 V2000
   -7.4204   -3.5773   -3.1487 C   0  0  0  0  0  0  0  0  0  0  0  0
   -6.7246   -2.2571   -2.9087 C   0  0  0  0  0  0  0  0  0  0  0  0
   -4.6826   -1.3712   -1.8658 C   0  0  0  0  0  0  0  0  0  0  0  0
   -3.2974   -1.7009   -1.3444 C   0  0  0  0  0  0  0  0  0  0  0  0
   -2.4797   -0.4292   -1.1393 C   0  0  0  0  0  0  0  0  0  0  0  0
   -1.0140   -0.6971   -0.8393 C   0  0  0  0  0  0  0  0  0  0  0  0
   -0.2428    0.5628   -0.4500 C   0  0  0  0  0  0  0  0  0  0  0  0
    1.9216    1.4127    0.1080 C   0  0  0  0  0  0  0  0  0  0  0  0
    3.3224    0.8615    0.3437 C   0  0  0  0  0  0  0  0  0  0  0  0
    4.1672    1.9543    0.9782 C   0  0  1  0  0  0  0  0  0  0  0  0
    3.5872    2.3558    2.3357 C   0  0  0  0  0  0  0  0  0  0  0  0
    4.3160    1.3910    3.2596 C   0  0  0  0  0  0  0  0  0  0  0  0
    5.6376    1.1983    2.6527 C   0  0  2  0  0  0  0  0  0  0  0  0
    6.6425    2.1579    3.2688 C   0  0  0  0  0  0  0  0  0  0  0  0
   -5.4200   -2.4189   -2.2644 N   0  0  0  0  0  0  0  0  0  0  0  0
   -5.0841   -0.2202   -1.9124 O   0  0  0  0  0  0  0  0  0  0  0  0
   -0.7730    1.6129   -0.2276 O   0  0  0  0  0  0  0  0  0  0  0  0
    1.0800    0.3110   -0.3067 O   0  0  0  0  0  0  0  0  0  0  0  0
    5.4881    1.4707    1.2472 O   0  0  0  0  0  0  0  0  0  0  0  0
   -8.3539   -3.4045   -3.6423 H   0  0  0  0  0  0  0  0  0  0  0  0
   -7.5972   -4.0625   -2.2116 H   0  0  0  0  0  0  0  0  0  0  0  0
   -6.8026   -4.1994   -3.7621 H   0  0  0  0  0  0  0  0  0  0  0  0
   -7.3445   -1.6520   -2.2806 H   0  0  0  0  0  0  0  0  0  0  0  0
   -6.5839   -1.7676   -3.8498 H   0  0  0  0  0  0  0  0  0  0  0  0
   -5.0732   -3.3239   -2.1193 H   0  0  0  0  0  0  0  0  0  0  0  0
   -2.7971   -2.3296   -2.0510 H   0  0  0  0  0  0  0  0  0  0  0  0
   -3.3874   -2.2147   -0.4101 H   0  0  0  0  0  0  0  0  0  0  0  0
   -2.8996    0.1157   -0.3198 H   0  0  0  0  0  0  0  0  0  0  0  0
   -2.5414    0.1610   -2.0297 H   0  0  0  0  0  0  0  0  0  0  0  0
   -0.5594   -1.1188   -1.7114 H   0  0  0  0  0  0  0  0  0  0  0  0
   -0.9539   -1.3964   -0.0317 H   0  0  0  0  0  0  0  0  0  0  0  0
    1.5418    1.8413    1.0118 H   0  0  0  0  0  0  0  0  0  0  0  0
    1.9480    2.1595   -0.6579 H   0  0  0  0  0  0  0  0  0  0  0  0
    3.7557    0.5653   -0.5887 H   0  0  0  0  0  0  0  0  0  0  0  0
    3.2728    0.0170    0.9989 H   0  0  0  0  0  0  0  0  0  0  0  0
    4.2061    2.8006    0.3245 H   0  0  0  0  0  0  0  0  0  0  0  0
    3.8133    3.3741    2.5739 H   0  0  0  0  0  0  0  0  0  0  0  0
    2.5280    2.2077    2.3697 H   0  0  0  0  0  0  0  0  0  0  0  0
    4.4111    1.8102    4.2394 H   0  0  0  0  0  0  0  0  0  0  0  0
    3.7914    0.4603    3.3186 H   0  0  0  0  0  0  0  0  0  0  0  0
    5.9683    0.1915    2.8003 H   0  0  0  0  0  0  0  0  0  0  0  0
    7.6314    1.8808    2.9687 H   0  0  0  0  0  0  0  0  0  0  0  0
    6.5685    2.1151    4.3354 H   0  0  0  0  0  0  0  0  0  0  0  0
    6.4349    3.1535    2.9361 H   0  0  0  0  0  0  0  0  0  0  0  0
  1  2  1  0  0  0  0
  1 20  1  0  0  0  0
  1 21  1  0  0  0  0
  1 22  1  0  0  0  0
  2 15  1  0  0  0  0
  2 23  1  0  0  0  0
  2 24  1  0  0  0  0
  3 15  1  0  0  0  0
  3  4  1  0  0  0  0
  3 16  2  0  0  0  0
  4  5  1  0  0  0  0
  4 26  1  0  0  0  0
  4 27  1  0  0  0  0
  5  6  1  0  0  0  0
  5 28  1  0  0  0  0
  5 29  1  0  0  0  0
  6  7  1  0  0  0  0
  6 30  1  0  0  0  0
  6 31  1  0  0  0  0
  7 18  1  0  0  0  0
  7 17  2  0  0  0  0
  8 18  1  0  0  0  0
  8  9  1  0  0  0  0
  8 32  1  0  0  0  0
  8 33  1  0  0  0  0
  9 10  1  0  0  0  0
  9 34  1  0  0  0  0
  9 35  1  0  0  0  0
 10 11  1  0  0  0  0
 10 19  1  0  0  0  0
 10 36  1  6  0  0  0
 11 12  1  0  0  0  0
 11 37  1  0  0  0  0
 11 38  1  0  0  0  0
 12 13  1  0  0  0  0
 12 39  1  0  0  0  0
 12 40  1  0  0  0  0
 13 14  1  0  0  0  0
 13 19  1  0  0  0  0
 13 41  1  1  0  0  0
 14 42  1  0  0  0  0
 14 43  1  0  0  0  0
 14 44  1  0  0  0  0
 15 25  1  0  0  0  0
M  END
>  <score>
0.3961564302444458

$$$$
PV-003995573690
 OpenBabel08202115463D

 50 52  0  0  0  0  0  0  0  0999 V2000
    4.8301    3.0077    3.0544 C   0  0  0  0  0  0  0  0  0  0  0  0
    4.4635    2.1237    1.8734 C   0  0  0  0  0  0  0  0  0  0  0  0
    3.7435    0.8618    2.2177 C   0  0  0  0  0  0  0  0  0  0  0  0
    2.5149    0.3595    1.8678 C   0  0  0  0  0  0  0  0  0  0  0  0
    1.4269    0.9091    0.9873 C   0  0  0  0  0  0  0  0  0  0  0  0
   -0.6891    0.4642   -0.1548 C   0  0  0  0  0  0  0  0  0  0  0  0
   -1.6454   -0.6677   -0.4979 C   0  0  0  0  0  0  0  0  0  0  0  0
   -2.7338   -0.1857   -1.4418 C   0  0  0  0  0  0  0  0  0  0  0  0
   -4.6613   -1.1026   -2.5995 C   0  0  0  0  0  0  0  0  0  0  0  0
   -5.4154   -2.2814   -3.0706 C   0  0  0  0  0  0  0  0  0  0  0  0
   -6.8873   -3.6638   -3.9305 C   0  0  0  0  0  0  0  0  0  0  0  0
   -6.6730   -2.3525   -3.7256 C   0  0  0  0  0  0  0  0  0  0  0  0
   -3.4625    1.0931   -0.9689 C   0  0  0  0  0  0  0  0  0  0  0  0
   -2.9705    1.7770   -2.2236 C   0  0  0  0  0  0  0  0  0  0  0  0
   -2.2101    0.5848   -2.6692 C   0  0  0  0  0  0  0  0  0  0  0  0
    5.6518   -0.1723    3.5288 C   0  0  0  0  0  0  0  0  0  0  0  0
    6.4881   -1.1510    2.7367 C   0  0  0  0  0  0  0  0  0  0  0  0
    1.5396    2.0213    0.4894 O   0  0  0  0  0  0  0  0  0  0  0  0
   -4.9811    0.0335   -2.9644 O   0  0  0  0  0  0  0  0  0  0  0  0
   -5.8404   -4.3766   -3.4449 O   0  0  0  0  0  0  0  0  0  0  0  0
    0.4034    0.0897    0.7306 N   0  0  0  0  0  0  0  0  0  0  0  0
   -3.6202   -1.2919   -1.7659 N   0  0  0  0  0  0  0  0  0  0  0  0
   -4.9044   -3.4777   -2.8891 N   0  0  0  0  0  0  0  0  0  0  0  0
    2.3689   -0.8496    2.4858 N   0  0  0  0  0  0  0  0  0  0  0  0
    3.4418   -1.1083    3.1889 N   0  0  0  0  0  0  0  0  0  0  0  0
    4.2859   -0.0686    3.0263 N   0  0  0  0  0  0  0  0  0  0  0  0
    3.9499    3.2304    3.6206 H   0  0  0  0  0  0  0  0  0  0  0  0
    5.2639    3.9182    2.6970 H   0  0  0  0  0  0  0  0  0  0  0  0
    5.5345    2.4967    3.6769 H   0  0  0  0  0  0  0  0  0  0  0  0
    5.3675    1.8599    1.3654 H   0  0  0  0  0  0  0  0  0  0  0  0
    3.8380    2.6922    1.2173 H   0  0  0  0  0  0  0  0  0  0  0  0
    0.3878   -0.7944    1.1532 H   0  0  0  0  0  0  0  0  0  0  0  0
   -0.2677    0.8323   -1.0669 H   0  0  0  0  0  0  0  0  0  0  0  0
   -1.2502    1.2424    0.3190 H   0  0  0  0  0  0  0  0  0  0  0  0
   -2.0967   -1.0305    0.4019 H   0  0  0  0  0  0  0  0  0  0  0  0
   -1.0988   -1.4587   -0.9674 H   0  0  0  0  0  0  0  0  0  0  0  0
   -3.4599   -2.1770   -1.3769 H   0  0  0  0  0  0  0  0  0  0  0  0
   -7.7271   -4.0696   -4.3908 H   0  0  0  0  0  0  0  0  0  0  0  0
   -7.2942   -1.5613   -3.9897 H   0  0  0  0  0  0  0  0  0  0  0  0
   -4.5263    0.9989   -0.9028 H   0  0  0  0  0  0  0  0  0  0  0  0
   -3.0835    1.5091   -0.0589 H   0  0  0  0  0  0  0  0  0  0  0  0
   -3.7576    2.0539   -2.8934 H   0  0  0  0  0  0  0  0  0  0  0  0
   -2.3513    2.6277   -2.0291 H   0  0  0  0  0  0  0  0  0  0  0  0
   -2.5309    0.1850   -3.6084 H   0  0  0  0  0  0  0  0  0  0  0  0
   -1.1488    0.7205   -2.6826 H   0  0  0  0  0  0  0  0  0  0  0  0
    5.6185   -0.4961    4.5480 H   0  0  0  0  0  0  0  0  0  0  0  0
    6.1109    0.7927    3.4754 H   0  0  0  0  0  0  0  0  0  0  0  0
    6.0517   -2.1259    2.7989 H   0  0  0  0  0  0  0  0  0  0  0  0
    7.4799   -1.1782    3.1374 H   0  0  0  0  0  0  0  0  0  0  0  0
    6.5249   -0.8416    1.7131 H   0  0  0  0  0  0  0  0  0  0  0  0
  1  2  1  0  0  0  0
  1 27  1  0  0  0  0
  1 28  1  0  0  0  0
  1 29  1  0  0  0  0
  2  3  1  0  0  0  0
  2 30  1  0  0  0  0
  2 31  1  0  0  0  0
  3 26  1  0  0  0  0
  3  4  2  0  0  0  0
  4  5  1  0  0  0  0
  4 24  1  0  0  0  0
  5 21  1  0  0  0  0
  5 18  2  0  0  0  0
  6 21  1  0  0  0  0
  6  7  1  0  0  0  0
  6 33  1  0  0  0  0
  6 34  1  0  0  0  0
  7  8  1  0  0  0  0
  7 35  1  0  0  0  0
  7 36  1  0  0  0  0
  8 22  1  0  0  0  0
  8 13  1  0  0  0  0
  8 15  1  0  0  0  0
  9 22  1  0  0  0  0
  9 10  1  0  0  0  0
  9 19  2  0  0  0  0
 10 12  1  0  0  0  0
 10 23  2  0  0  0  0
 11 20  1  0  0  0  0
 11 38  1  0  0  0  0
 11 12  2  0  0  0  0
 12 39  1  0  0  0  0
 13 14  1  0  0  0  0
 13 40  1  0  0  0  0
 13 41  1  0  0  0  0
 14 15  1  0  0  0  0
 14 42  1  0  0  0  0
 14 43  1  0  0  0  0
 15 44  1  0  0  0  0
 15 45  1  0  0  0  0
 16 26  1  0  0  0  0
 16 17  1  0  0  0  0
 16 46  1  0  0  0  0
 16 47  1  0  0  0  0
 17 48  1  0  0  0  0
 17 49  1  0  0  0  0
 17 50  1  0  0  0  0
 21 32  1  0  0  0  0
 22 37  1  0  0  0  0
 23 20  1  0  0  0  0
 24 25  2  0  0  0  0
 25 26  1  0  0  0  0
M  END
>  <score>
0.39690250158309937

$$$$
PV-003208495460
 OpenBabel08202115463D

 41 43  0  0  0  0  0  0  0  0999 V2000
    1.0917    2.6557    0.1370 C   0  0  0  0  0  0  0  0  0  0  0  0
    0.4586    0.3637    0.6958 C   0  0  0  0  0  0  0  0  0  0  0  0
   -1.6595   -0.0854   -0.5242 C   0  0  0  0  0  0  0  0  0  0  0  0
   -1.5388   -1.4447   -0.7431 C   0  0  0  0  0  0  0  0  0  0  0  0
   -3.5359   -1.4661   -1.8081 C   0  0  0  0  0  0  0  0  0  0  0  0
   -4.5864   -2.2229   -2.5233 C   0  0  0  0  0  0  0  0  0  0  0  0
   -6.7710   -2.4920   -3.0508 C   0  0  0  0  0  0  0  0  0  0  0  0
   -6.4592   -3.5988   -3.8176 C   0  0  0  0  0  0  0  0  0  0  0  0
   -5.1275   -3.9569   -3.8755 C   0  0  0  0  0  0  0  0  0  0  0  0
   -2.8043    0.5196   -1.0022 C   0  0  0  0  0  0  0  0  0  0  0  0
    2.4498    1.4113    1.7501 C   0  0  0  0  0  0  0  0  0  0  0  0
    2.2713    1.4052    3.1207 C   0  0  0  0  0  0  0  0  0  0  0  0
    3.3722    1.4103    3.9631 C   0  0  0  0  0  0  0  0  0  0  0  0
    4.6482    1.4269    3.4324 C   0  0  0  0  0  0  0  0  0  0  0  0
    4.8273    1.4329    2.0578 C   0  0  0  0  0  0  0  0  0  0  0  0
    6.2023    1.3461    1.4387 C   0  0  0  0  0  0  0  0  0  0  0  0
    3.7297    1.4278    1.2181 C   0  0  0  0  0  0  0  0  0  0  0  0
    1.3265    1.4005    0.8905 N   0  0  0  0  0  0  0  0  0  0  0  0
   -0.7290    0.7363    0.1372 N   0  0  0  0  0  0  0  0  0  0  0  0
   -2.4752   -2.1575   -1.3914 N   0  0  0  0  0  0  0  0  0  0  0  0
   -5.8381   -1.7839   -2.3924 N   0  0  0  0  0  0  0  0  0  0  0  0
   -4.1691   -3.2751   -3.2312 N   0  0  0  0  0  0  0  0  0  0  0  0
   -3.7605   -0.1593   -1.6528 N   0  0  0  0  0  0  0  0  0  0  0  0
    0.7286   -0.7986    0.9985 O   0  0  0  0  0  0  0  0  0  0  0  0
    6.7292    0.0650    1.8292 O   0  0  0  0  0  0  0  0  0  0  0  0
    1.1523    2.4586   -0.9130 H   0  0  0  0  0  0  0  0  0  0  0  0
    1.8336    3.3778    0.4074 H   0  0  0  0  0  0  0  0  0  0  0  0
    0.1200    3.0365    0.3727 H   0  0  0  0  0  0  0  0  0  0  0  0
   -0.9606    1.6862    0.2046 H   0  0  0  0  0  0  0  0  0  0  0  0
   -0.6910   -1.9345   -0.3926 H   0  0  0  0  0  0  0  0  0  0  0  0
   -7.7655   -2.1959   -2.9809 H   0  0  0  0  0  0  0  0  0  0  0  0
   -7.1914   -4.1351   -4.3256 H   0  0  0  0  0  0  0  0  0  0  0  0
   -4.8570   -4.7872   -4.4404 H   0  0  0  0  0  0  0  0  0  0  0  0
   -2.9301    1.5410   -0.8520 H   0  0  0  0  0  0  0  0  0  0  0  0
    1.3111    1.3968    3.5200 H   0  0  0  0  0  0  0  0  0  0  0  0
    3.2379    1.4017    4.9944 H   0  0  0  0  0  0  0  0  0  0  0  0
    5.4742    1.4347    4.0643 H   0  0  0  0  0  0  0  0  0  0  0  0
    6.8267    2.1333    1.8068 H   0  0  0  0  0  0  0  0  0  0  0  0
    6.1355    1.4120    0.3728 H   0  0  0  0  0  0  0  0  0  0  0  0
    6.0605   -0.4215    2.3168 H   0  0  0  0  0  0  0  0  0  0  0  0
    3.8639    1.4364    0.1868 H   0  0  0  0  0  0  0  0  0  0  0  0
  1 18  1  0  0  0  0
  1 26  1  0  0  0  0
  1 27  1  0  0  0  0
  1 28  1  0  0  0  0
  2 18  1  0  0  0  0
  2 19  1  0  0  0  0
  2 24  2  0  0  0  0
  3 19  1  0  0  0  0
  3 10  1  0  0  0  0
  3  4  2  0  0  0  0
  4 20  1  0  0  0  0
  4 30  1  0  0  0  0
  5  6  1  0  0  0  0
  5 23  1  0  0  0  0
  5 20  2  0  0  0  0
  6 22  1  0  0  0  0
  6 21  2  0  0  0  0
  7 21  1  0  0  0  0
  7 31  1  0  0  0  0
  7  8  2  0  0  0  0
  8  9  1  0  0  0  0
  8 32  1  0  0  0  0
  9 33  1  0  0  0  0
  9 22  2  0  0  0  0
 10 34  1  0  0  0  0
 10 23  2  0  0  0  0
 11 18  1  0  0  0  0
 11 17  1  0  0  0  0
 11 12  2  0  0  0  0
 12 13  1  0  0  0  0
 12 35  1  0  0  0  0
 13 36  1  0  0  0  0
 13 14  2  0  0  0  0
 14 15  1  0  0  0  0
 14 37  1  0  0  0  0
 15 16  1  0  0  0  0
 15 17  2  0  0  0  0
 16 25  1  0  0  0  0
 16 38  1  0  0  0  0
 16 39  1  0  0  0  0
 17 41  1  0  0  0  0
 19 29  1  0  0  0  0
 25 40  1  0  0  0  0
M  END
>  <score>
0.39753168821334839

$$$$
Z4206594616
 OpenBabel08202115463D

 45 47  0  0  0  0  0  0  0  0999 V2000
    4.6859    3.0287    1.8104 C   0  0  0  0  0  0  0  0  0  0  0  0
    3.3766    1.0522    1.5995 C   0  0  2  0  0  0  0  0  0  0  0  0
    2.2067    0.4566    0.8407 C   0  0  0  0  0  0  0  0  0  0  0  0
    0.3876    0.9387   -0.7974 C   0  0  0  0  0  0  0  0  0  0  0  0
   -0.8792    0.8319    0.0414 C   0  0  0  0  0  0  0  0  0  0  0  0
   -2.0874    0.5123   -0.7657 C   0  0  0  0  0  0  0  0  0  0  0  0
   -3.6661   -0.4977   -1.7868 C   0  0  0  0  0  0  0  0  0  0  0  0
   -4.4857   -1.6299   -2.2848 C   0  0  0  0  0  0  0  0  0  0  0  0
   -4.2244   -2.9593   -1.9915 C   0  0  0  0  0  0  0  0  0  0  0  0
   -5.0378   -3.9527   -2.5029 C   0  0  0  0  0  0  0  0  0  0  0  0
   -6.1182   -3.6194   -3.3048 C   0  0  0  0  0  0  0  0  0  0  0  0
   -6.3789   -2.2940   -3.5974 C   0  0  0  0  0  0  0  0  0  0  0  0
   -5.5630   -1.2976   -3.0844 C   0  0  0  0  0  0  0  0  0  0  0  0
   -3.8625    0.8337   -1.9982 C   0  0  0  0  0  0  0  0  0  0  0  0
    4.6556    0.1759    1.6099 C   0  0  0  0  0  0  0  0  0  0  0  0
    4.3007   -0.3345    3.0381 C   0  0  2  0  0  0  0  0  0  0  0  0
    3.3194    0.8540    3.1454 C   0  0  0  0  0  0  0  0  0  0  0  0
    3.5797    2.3927    1.1808 O   0  0  0  0  0  0  0  0  0  0  0  0
    1.9456   -0.7330    0.9118 O   0  0  0  0  0  0  0  0  0  0  0  0
    1.4964    1.3144    0.1026 N   0  0  0  0  0  0  0  0  0  0  0  0
   -2.5516   -0.6994   -1.0093 N   0  0  0  0  0  0  0  0  0  0  0  0
   -2.8420    1.4721   -1.3406 N   0  0  0  0  0  0  0  0  0  0  0  0
    5.4205   -0.2976    4.0014 N   0  0  0  0  0  0  0  0  0  0  0  0
   -6.9139   -4.5872   -3.7989 F   0  0  0  0  0  0  0  0  0  0  0  0
    4.8360    3.9955    1.3773 H   0  0  0  0  0  0  0  0  0  0  0  0
    5.5651    2.4351    1.6707 H   0  0  0  0  0  0  0  0  0  0  0  0
    4.4884    3.1337    2.8568 H   0  0  0  0  0  0  0  0  0  0  0  0
    1.7289    2.2646    0.1630 H   0  0  0  0  0  0  0  0  0  0  0  0
    0.5979   -0.0030   -1.2600 H   0  0  0  0  0  0  0  0  0  0  0  0
    0.2621    1.6871   -1.5518 H   0  0  0  0  0  0  0  0  0  0  0  0
   -1.0386    1.7662    0.5379 H   0  0  0  0  0  0  0  0  0  0  0  0
   -0.7417    0.0596    0.7691 H   0  0  0  0  0  0  0  0  0  0  0  0
   -3.4161   -3.2091   -1.3866 H   0  0  0  0  0  0  0  0  0  0  0  0
   -4.8393   -4.9503   -2.2861 H   0  0  0  0  0  0  0  0  0  0  0  0
   -7.1871   -2.0442   -4.2024 H   0  0  0  0  0  0  0  0  0  0  0  0
   -5.7614   -0.3000   -3.3013 H   0  0  0  0  0  0  0  0  0  0  0  0
   -4.6286    1.2752   -2.5457 H   0  0  0  0  0  0  0  0  0  0  0  0
   -2.6901    2.4393   -1.2967 H   0  0  0  0  0  0  0  0  0  0  0  0
    5.5670    0.7342    1.5605 H   0  0  0  0  0  0  0  0  0  0  0  0
    4.6651   -0.5903    0.8630 H   0  0  0  0  0  0  0  0  0  0  0  0
    3.8380   -1.2989    3.0650 H   0  0  0  0  0  0  0  0  0  0  0  0
    5.9819    0.4851    3.8207 H   0  0  0  0  0  0  0  0  0  0  0  0
    5.9572   -1.1124    3.9094 H   0  0  0  0  0  0  0  0  0  0  0  0
    3.6992    1.6831    3.7050 H   0  0  0  0  0  0  0  0  0  0  0  0
    2.3512    0.5872    3.5147 H   0  0  0  0  0  0  0  0  0  0  0  0
  1 18  1  0  0  0  0
  1 25  1  0  0  0  0
  1 26  1  0  0  0  0
  1 27  1  0  0  0  0
  2 18  1  6  0  0  0
  2  3  1  0  0  0  0
  2 15  1  0  0  0  0
  2 17  1  0  0  0  0
  3 20  1  0  0  0  0
  3 19  2  0  0  0  0
  4 20  1  0  0  0  0
  4  5  1  0  0  0  0
  4 29  1  0  0  0  0
  4 30  1  0  0  0  0
  5  6  1  0  0  0  0
  5 31  1  0  0  0  0
  5 32  1  0  0  0  0
  6 22  1  0  0  0  0
  6 21  2  0  0  0  0
  7 21  1  0  0  0  0
  7  8  1  0  0  0  0
  7 14  2  0  0  0  0
  8 13  1  0  0  0  0
  8  9  2  0  0  0  0
  9 10  1  0  0  0  0
  9 33  1  0  0  0  0
 10 34  1  0  0  0  0
 10 11  2  0  0  0  0
 11 24  1  0  0  0  0
 11 12  1  0  0  0  0
 12 35  1  0  0  0  0
 12 13  2  0  0  0  0
 13 36  1  0  0  0  0
 14 22  1  0  0  0  0
 14 37  1  0  0  0  0
 15 16  1  0  0  0  0
 15 39  1  0  0  0  0
 15 40  1  0  0  0  0
 16 23  1  0  0  0  0
 16 17  1  0  0  0  0
 16 41  1  6  0  0  0
 17 44  1  0  0  0  0
 17 45  1  0  0  0  0
 20 28  1  0  0  0  0
 22 38  1  0  0  0  0
 23 42  1  0  0  0  0
 23 43  1  0  0  0  0
M  END
>  <score>
0.39782887697219849

$$$$
PV-004014998384
 OpenBabel08202115463D

 53 55  0  0  0  0  0  0  0  0999 V2000
   -8.4962   -1.8927   -3.8117 C   0  0  0  0  0  0  0  0  0  0  0  0
   -6.3792   -2.9280   -2.9846 C   0  0  0  0  0  0  0  0  0  0  0  0
   -5.5623   -4.0114   -2.7187 C   0  0  0  0  0  0  0  0  0  0  0  0
   -4.2758   -3.7796   -2.2706 C   0  0  0  0  0  0  0  0  0  0  0  0
   -4.5792   -1.5149   -2.3331 C   0  0  0  0  0  0  0  0  0  0  0  0
   -3.9772   -0.1671   -2.0951 C   0  0  0  0  0  0  0  0  0  0  0  0
   -1.9929    1.1045   -1.4062 C   0  0  1  0  0  0  0  0  0  0  0  0
   -1.7345    1.5804   -0.0113 C   0  0  0  0  0  0  0  0  0  0  0  0
   -0.5942    1.1287   -0.8742 C   0  0  1  0  0  0  0  0  0  0  0  0
    0.1083   -0.1844   -0.6326 C   0  0  0  0  0  0  0  0  0  0  0  0
    2.3542    0.3374    0.2377 C   0  0  0  0  0  0  0  0  0  0  0  0
    3.3296    0.2686    1.3821 C   0  0  1  0  0  0  0  0  0  0  0  0
    4.7396    0.5199    0.8553 C   0  0  0  0  0  0  0  0  0  0  0  0
    5.7272    0.5621    2.0194 C   0  0  0  0  0  0  0  0  0  0  0  0
    5.2739    1.5351    3.0884 C   0  0  0  0  0  0  0  0  0  0  0  0
    6.1918    1.4103    4.3065 C   0  0  0  0  0  0  0  0  0  0  0  0
    5.3475    2.9593    2.5378 C   0  0  0  0  0  0  0  0  0  0  0  0
    3.8344    1.2300    3.5080 C   0  0  0  0  0  0  0  0  0  0  0  0
   -5.8787   -1.6558   -2.7880 C   0  0  0  0  0  0  0  0  0  0  0  0
   -7.6387   -3.0572   -3.5637 O   0  0  0  0  0  0  0  0  0  0  0  0
   -4.6363    0.8616   -2.2786 O   0  0  0  0  0  0  0  0  0  0  0  0
    2.6831    0.8291   -0.8458 O   0  0  0  0  0  0  0  0  0  0  0  0
    2.9787    1.2448    2.3546 O   0  0  0  0  0  0  0  0  0  0  0  0
   -3.7748   -2.5560   -2.0756 N   0  0  0  0  0  0  0  0  0  0  0  0
   -2.7075   -0.1465   -1.6798 N   0  0  0  0  0  0  0  0  0  0  0  0
    1.1127   -0.1536    0.4321 N   0  0  0  0  0  0  0  0  0  0  0  0
   -9.4525   -2.2214   -4.1617 H   0  0  0  0  0  0  0  0  0  0  0  0
   -8.0421   -1.2666   -4.5510 H   0  0  0  0  0  0  0  0  0  0  0  0
   -8.6196   -1.3410   -2.9033 H   0  0  0  0  0  0  0  0  0  0  0  0
   -5.9095   -4.9824   -2.8534 H   0  0  0  0  0  0  0  0  0  0  0  0
   -3.6663   -4.5992   -2.0750 H   0  0  0  0  0  0  0  0  0  0  0  0
   -2.2374   -0.9971   -1.5536 H   0  0  0  0  0  0  0  0  0  0  0  0
   -2.2046    1.8925   -2.0984 H   0  0  0  0  0  0  0  0  0  0  0  0
   -2.0426    0.9852    0.8228 H   0  0  0  0  0  0  0  0  0  0  0  0
   -1.8452    2.6171    0.2295 H   0  0  0  0  0  0  0  0  0  0  0  0
    0.0292    1.9099   -1.2563 H   0  0  0  0  0  0  0  0  0  0  0  0
    0.5942   -0.4744   -1.5408 H   0  0  0  0  0  0  0  0  0  0  0  0
   -0.6298   -0.9144   -0.3735 H   0  0  0  0  0  0  0  0  0  0  0  0
    0.8749   -0.5018    1.3167 H   0  0  0  0  0  0  0  0  0  0  0  0
    3.2887   -0.7030    1.8283 H   0  0  0  0  0  0  0  0  0  0  0  0
    4.7631    1.4549    0.3357 H   0  0  0  0  0  0  0  0  0  0  0  0
    5.0139   -0.2680    0.1854 H   0  0  0  0  0  0  0  0  0  0  0  0
    6.6850    0.8676    1.6533 H   0  0  0  0  0  0  0  0  0  0  0  0
    5.8036   -0.4156    2.4475 H   0  0  0  0  0  0  0  0  0  0  0  0
    7.2042    1.5898    4.0106 H   0  0  0  0  0  0  0  0  0  0  0  0
    6.1093    0.4250    4.7154 H   0  0  0  0  0  0  0  0  0  0  0  0
    5.9035    2.1289    5.0450 H   0  0  0  0  0  0  0  0  0  0  0  0
    4.8331    3.0069    1.6007 H   0  0  0  0  0  0  0  0  0  0  0  0
    6.3718    3.2343    2.3966 H   0  0  0  0  0  0  0  0  0  0  0  0
    4.8889    3.6334    3.2307 H   0  0  0  0  0  0  0  0  0  0  0  0
    3.7953    0.2643    3.9669 H   0  0  0  0  0  0  0  0  0  0  0  0
    3.5032    1.9707    4.2055 H   0  0  0  0  0  0  0  0  0  0  0  0
   -6.4671   -0.8196   -2.9783 H   0  0  0  0  0  0  0  0  0  0  0  0
  1 20  1  0  0  0  0
  1 27  1  0  0  0  0
  1 28  1  0  0  0  0
  1 29  1  0  0  0  0
  2 20  1  0  0  0  0
  2 19  1  0  0  0  0
  2  3  2  0  0  0  0
  3  4  1  0  0  0  0
  3 30  1  0  0  0  0
  4 31  1  0  0  0  0
  4 24  2  0  0  0  0
  5 24  1  0  0  0  0
  5  6  1  0  0  0  0
  5 19  2  0  0  0  0
  6 25  1  0  0  0  0
  6 21  2  0  0  0  0
  7 25  1  0  0  0  0
  7  8  1  0  0  0  0
  7  9  1  0  0  0  0
  7 33  1  6  0  0  0
  8  9  1  0  0  0  0
  8 34  1  0  0  0  0
  8 35  1  0  0  0  0
  9 10  1  0  0  0  0
  9 36  1  6  0  0  0
 10 26  1  0  0  0  0
 10 37  1  0  0  0  0
 10 38  1  0  0  0  0
 11 26  1  0  0  0  0
 11 12  1  0  0  0  0
 11 22  2  0  0  0  0
 12 13  1  0  0  0  0
 12 23  1  0  0  0  0
 12 40  1  1  0  0  0
 13 14  1  0  0  0  0
 13 41  1  0  0  0  0
 13 42  1  0  0  0  0
 14 15  1  0  0  0  0
 14 43  1  0  0  0  0
 14 44  1  0  0  0  0
 15 16  1  0  0  0  0
 15 17  1  0  0  0  0
 15 18  1  0  0  0  0
 16 45  1  0  0  0  0
 16 46  1  0  0  0  0
 16 47  1  0  0  0  0
 17 48  1  0  0  0  0
 17 49  1  0  0  0  0
 17 50  1  0  0  0  0
 18 23  1  0  0  0  0
 18 51  1  0  0  0  0
 18 52  1  0  0  0  0
 19 53  1  0  0  0  0
 25 32  1  0  0  0  0
 26 39  1  0  0  0  0
M  END
>  <score>
0.39911240339279175

$$$$
PV-003546305541
 OpenBabel08202115463D

 55 58  0  0  0  0  0  0  0  0999 V2000
   -8.1295   -2.3967   -2.6669 C   0  0  0  0  0  0  0  0  0  0  0  0
   -6.1963   -4.0212   -2.8645 C   0  0  0  0  0  0  0  0  0  0  0  0
   -4.8189   -3.9350   -2.7149 C   0  0  0  0  0  0  0  0  0  0  0  0
   -4.5168   -2.6066   -2.3815 C   0  0  0  0  0  0  0  0  0  0  0  0
   -3.0959   -2.1093   -2.1360 C   0  0  0  0  0  0  0  0  0  0  0  0
   -1.8174   -0.0993   -1.5303 C   0  0  1  0  0  0  0  0  0  0  0  0
   -1.9063    1.3897   -1.8907 C   0  0  0  0  0  0  0  0  0  0  0  0
   -1.7848    2.1393   -0.5611 C   0  0  1  0  0  0  0  0  0  0  0  0
   -1.0151    1.1795    0.3528 C   0  0  1  0  0  0  0  0  0  0  0  0
    1.3700    0.7308    0.8696 C   0  0  0  0  0  0  0  0  0  0  0  0
    2.7859    0.9930    0.4354 C   0  0  0  0  0  0  0  0  0  0  0  0
    3.8623    0.4565    1.3649 C   0  0  0  0  0  0  0  0  0  0  0  0
    4.0385    1.2517    2.6712 C   0  0  0  0  0  0  0  0  0  0  0  0
    5.5421    1.0323    2.5009 C   0  0  0  0  0  0  0  0  0  0  0  0
    6.2787   -0.0470    3.2953 C   0  0  0  0  0  0  0  0  0  0  0  0
    6.7548    1.0844    4.2245 C   0  0  0  0  0  0  0  0  0  0  0  0
    6.5565    2.0460    3.0387 C   0  0  0  0  0  0  0  0  0  0  0  0
    5.2967    0.8797    0.9994 C   0  0  0  0  0  0  0  0  0  0  0  0
   -1.6291   -0.1624   -0.0109 C   0  0  0  0  0  0  0  0  0  0  0  0
   -5.7049   -1.9040   -2.3295 C   0  0  0  0  0  0  0  0  0  0  0  0
   -6.7196   -2.7861   -2.6271 N   0  0  0  0  0  0  0  0  0  0  0  0
   -3.0538   -0.7917   -1.9190 N   0  0  0  0  0  0  0  0  0  0  0  0
    0.4193    1.2042    0.0626 N   0  0  0  0  0  0  0  0  0  0  0  0
   -2.1382   -2.8803   -2.1487 O   0  0  0  0  0  0  0  0  0  0  0  0
   -1.0621    3.3599   -0.7341 O   0  0  0  0  0  0  0  0  0  0  0  0
    1.1240    0.1177    1.9050 O   0  0  0  0  0  0  0  0  0  0  0  0
   -8.2133   -1.3958   -3.0357 H   0  0  0  0  0  0  0  0  0  0  0  0
   -8.5417   -2.4490   -1.6809 H   0  0  0  0  0  0  0  0  0  0  0  0
   -8.6645   -3.0607   -3.3134 H   0  0  0  0  0  0  0  0  0  0  0  0
   -6.7331   -4.8764   -3.1136 H   0  0  0  0  0  0  0  0  0  0  0  0
   -4.1370   -4.7119   -2.8289 H   0  0  0  0  0  0  0  0  0  0  0  0
   -3.8761   -0.2687   -2.0226 H   0  0  0  0  0  0  0  0  0  0  0  0
   -0.9839   -0.5514   -2.0261 H   0  0  0  0  0  0  0  0  0  0  0  0
   -2.8444    1.6061   -2.3577 H   0  0  0  0  0  0  0  0  0  0  0  0
   -1.1082    1.6635   -2.5488 H   0  0  0  0  0  0  0  0  0  0  0  0
   -2.7526    2.3514   -0.1570 H   0  0  0  0  0  0  0  0  0  0  0  0
   -1.0695    3.6080   -1.6615 H   0  0  0  0  0  0  0  0  0  0  0  0
   -1.1748    1.4133    1.3847 H   0  0  0  0  0  0  0  0  0  0  0  0
    0.7026    1.5983   -0.7888 H   0  0  0  0  0  0  0  0  0  0  0  0
    2.9161    2.0520    0.3561 H   0  0  0  0  0  0  0  0  0  0  0  0
    2.9252    0.5430   -0.5254 H   0  0  0  0  0  0  0  0  0  0  0  0
    3.7272   -0.5966    1.4976 H   0  0  0  0  0  0  0  0  0  0  0  0
    3.7256    2.2737    2.6201 H   0  0  0  0  0  0  0  0  0  0  0  0
    3.6131    0.7908    3.5380 H   0  0  0  0  0  0  0  0  0  0  0  0
    5.6450   -0.7730    3.7603 H   0  0  0  0  0  0  0  0  0  0  0  0
    7.0589   -0.5452    2.7587 H   0  0  0  0  0  0  0  0  0  0  0  0
    6.1169    1.2718    5.0629 H   0  0  0  0  0  0  0  0  0  0  0  0
    7.7667    0.9912    4.5594 H   0  0  0  0  0  0  0  0  0  0  0  0
    7.4212    2.1854    2.4241 H   0  0  0  0  0  0  0  0  0  0  0  0
    6.1448    2.9991    3.2975 H   0  0  0  0  0  0  0  0  0  0  0  0
    5.8813    0.1200    0.5240 H   0  0  0  0  0  0  0  0  0  0  0  0
    5.3674    1.7882    0.4385 H   0  0  0  0  0  0  0  0  0  0  0  0
   -0.9718   -0.9635    0.2557 H   0  0  0  0  0  0  0  0  0  0  0  0
   -2.5700   -0.2935    0.4815 H   0  0  0  0  0  0  0  0  0  0  0  0
   -5.8133   -0.8940   -2.1065 H   0  0  0  0  0  0  0  0  0  0  0  0
  1 21  1  0  0  0  0
  1 27  1  0  0  0  0
  1 28  1  0  0  0  0
  1 29  1  0  0  0  0
  2 21  1  0  0  0  0
  2 30  1  0  0  0  0
  2  3  2  0  0  0  0
  3  4  1  0  0  0  0
  3 31  1  0  0  0  0
  4  5  1  0  0  0  0
  4 20  2  0  0  0  0
  5 22  1  0  0  0  0
  5 24  2  0  0  0  0
  6 22  1  0  0  0  0
  6  7  1  0  0  0  0
  6 19  1  0  0  0  0
  6 33  1  6  0  0  0
  7  8  1  0  0  0  0
  7 34  1  0  0  0  0
  7 35  1  0  0  0  0
  8 25  1  0  0  0  0
  8  9  1  0  0  0  0
  8 36  1  1  0  0  0
  9 23  1  0  0  0  0
  9 19  1  0  0  0  0
  9 38  1  1  0  0  0
 10 23  1  0  0  0  0
 10 11  1  0  0  0  0
 10 26  2  0  0  0  0
 11 12  1  0  0  0  0
 11 40  1  0  0  0  0
 11 41  1  0  0  0  0
 12 13  1  0  0  0  0
 12 18  1  0  0  0  0
 12 42  1  0  0  0  0
 13 14  1  0  0  0  0
 13 43  1  0  0  0  0
 13 44  1  0  0  0  0
 14 15  1  0  0  0  0
 14 17  1  0  0  0  0
 14 18  1  0  0  0  0
 15 16  1  0  0  0  0
 15 45  1  0  0  0  0
 15 46  1  0  0  0  0
 16 17  1  0  0  0  0
 16 47  1  0  0  0  0
 16 48  1  0  0  0  0
 17 49  1  0  0  0  0
 17 50  1  0  0  0  0
 18 51  1  0  0  0  0
 18 52  1  0  0  0  0
 19 53  1  0  0  0  0
 19 54  1  0  0  0  0
 20 21  1  0  0  0  0
 20 55  1  0  0  0  0
 22 32  1  0  0  0  0
 23 39  1  0  0  0  0
 25 37  1  0  0  0  0
M  END
>  <score>
0.39918297529220581

$$$$
PV-003990043047
 OpenBabel08202115463D

 45 48  0  0  0  0  0  0  0  0999 V2000
    7.0313    1.7655    1.6734 O   0  0  0  0  0  0  0  0  0  0  0  0
    3.3996    1.7828   -0.8692 O   0  0  0  0  0  0  0  0  0  0  0  0
    6.0328    1.1666    2.0005 C   0  0  0  0  0  0  0  0  0  0  0  0
    5.6168    1.0787    3.4538 C   0  0  0  0  0  0  0  0  0  0  0  0
    4.1333    1.4564    3.5502 C   0  0  0  0  0  0  0  0  0  0  0  0
    3.3347    0.6048    2.5594 C   0  0  0  0  0  0  0  0  0  0  0  0
    2.9855    1.4714    0.2467 C   0  0  0  0  0  0  0  0  0  0  0  0
    1.5478    1.7159    0.6466 C   0  0  1  0  0  0  0  0  0  0  0  0
    0.6390    2.2183   -0.4938 C   0  0  0  0  0  0  0  0  0  0  0  0
    0.1258    0.7698   -0.7083 C   0  0  1  0  0  0  0  0  0  0  0  0
   -2.0822   -0.4334   -1.0936 C   0  0  0  0  0  0  0  0  0  0  0  0
   -3.3590    0.0454   -1.2509 C   0  0  0  0  0  0  0  0  0  0  0  0
   -4.6286   -0.7036   -1.5337 C   0  0  0  0  0  0  0  0  0  0  0  0
   -5.5674   -2.7190   -2.6580 C   0  0  0  0  0  0  0  0  0  0  0  0
   -6.6345   -4.4299   -3.5248 C   0  0  0  0  0  0  0  0  0  0  0  0
   -7.7164   -3.6390   -3.2843 C   0  0  0  0  0  0  0  0  0  0  0  0
    0.6560    0.4311    0.6949 C   0  0  0  0  0  0  0  0  0  0  0  0
    5.1613    0.4825    0.9698 C   0  0  0  0  0  0  0  0  0  0  0  0
    3.7668    0.8969    1.1872 N   0  0  0  0  0  0  0  0  0  0  0  0
   -1.3262    0.6549   -0.8533 N   0  0  0  0  0  0  0  0  0  0  0  0
   -4.5015   -1.9783   -2.2185 N   0  0  0  0  0  0  0  0  0  0  0  0
   -5.4183   -3.9077   -3.1711 N   0  0  0  0  0  0  0  0  0  0  0  0
   -3.3150    1.4024   -1.1039 N   0  0  0  0  0  0  0  0  0  0  0  0
   -2.0827    1.7719   -0.8641 N   0  0  0  0  0  0  0  0  0  0  0  0
   -7.2020   -2.1627   -2.5796 S   0  0  0  0  0  0  0  0  0  0  0  0
    6.2020    1.7564    4.0398 H   0  0  0  0  0  0  0  0  0  0  0  0
    5.7606    0.0808    3.8121 H   0  0  0  0  0  0  0  0  0  0  0  0
    3.7812    1.2746    4.5441 H   0  0  0  0  0  0  0  0  0  0  0  0
    4.0112    2.4924    3.3120 H   0  0  0  0  0  0  0  0  0  0  0  0
    2.2931    0.8288    2.6584 H   0  0  0  0  0  0  0  0  0  0  0  0
    3.4988   -0.4314    2.7698 H   0  0  0  0  0  0  0  0  0  0  0  0
    1.5205    2.3119    1.5348 H   0  0  0  0  0  0  0  0  0  0  0  0
   -0.1160    2.9088   -0.1805 H   0  0  0  0  0  0  0  0  0  0  0  0
    1.1691    2.6237   -1.3302 H   0  0  0  0  0  0  0  0  0  0  0  0
    0.6071    0.2414   -1.5045 H   0  0  0  0  0  0  0  0  0  0  0  0
   -1.7668   -1.4229   -1.1481 H   0  0  0  0  0  0  0  0  0  0  0  0
   -5.2481   -0.0732   -2.1369 H   0  0  0  0  0  0  0  0  0  0  0  0
   -5.1111   -0.8871   -0.5964 H   0  0  0  0  0  0  0  0  0  0  0  0
   -3.6002   -2.3294   -2.3755 H   0  0  0  0  0  0  0  0  0  0  0  0
   -6.7259   -5.3738   -3.9516 H   0  0  0  0  0  0  0  0  0  0  0  0
   -8.7029   -3.8915   -3.4954 H   0  0  0  0  0  0  0  0  0  0  0  0
   -0.0905    0.4429    1.4613 H   0  0  0  0  0  0  0  0  0  0  0  0
    1.2071   -0.4846    0.7471 H   0  0  0  0  0  0  0  0  0  0  0  0
    5.4733    0.7681   -0.0130 H   0  0  0  0  0  0  0  0  0  0  0  0
    5.2428   -0.5791    1.0761 H   0  0  0  0  0  0  0  0  0  0  0  0
  3  4  1  0  0  0  0
  3 18  1  0  0  0  0
  3  1  2  0  0  0  0
  4  5  1  0  0  0  0
  4 26  1  0  0  0  0
  4 27  1  0  0  0  0
  5  6  1  0  0  0  0
  5 28  1  0  0  0  0
  5 29  1  0  0  0  0
  6 19  1  0  0  0  0
  6 30  1  0  0  0  0
  6 31  1  0  0  0  0
  7 19  1  0  0  0  0
  7  8  1  0  0  0  0
  7  2  2  0  0  0  0
  8  9  1  0  0  0  0
  8 17  1  0  0  0  0
  8 32  1  1  0  0  0
  9 10  1  0  0  0  0
  9 33  1  0  0  0  0
  9 34  1  0  0  0  0
 10 20  1  0  0  0  0
 10 17  1  0  0  0  0
 10 35  1  6  0  0  0
 11 20  1  0  0  0  0
 11 36  1  0  0  0  0
 11 12  2  0  0  0  0
 12 13  1  0  0  0  0
 12 23  1  0  0  0  0
 13 21  1  0  0  0  0
 13 37  1  0  0  0  0
 13 38  1  0  0  0  0
 14 21  1  0  0  0  0
 14 25  1  0  0  0  0
 14 22  2  0  0  0  0
 15 22  1  0  0  0  0
 15 40  1  0  0  0  0
 15 16  2  0  0  0  0
 16 25  1  0  0  0  0
 16 41  1  0  0  0  0
 17 42  1  0  0  0  0
 17 43  1  0  0  0  0
 18 19  1  0  0  0  0
 18 44  1  0  0  0  0
 18 45  1  0  0  0  0
 20 24  1  0  0  0  0
 21 39  1  0  0  0  0
 23 24  2  0  0  0  0
M  END
>  <score>
0.39987641572952271

$$$$
Z3806941209
 OpenBabel08202115463D

 49 52  0  0  0  0  0  0  0  0999 V2000
    6.7688    0.1571    4.1339 N   0  0  0  0  0  0  0  0  0  0  0  0
   -0.1141    0.8743    0.1022 N   0  0  0  0  0  0  0  0  0  0  0  0
   -5.3002   -2.3462   -1.8200 N   0  0  0  0  0  0  0  0  0  0  0  0
    6.7151    0.6915    2.7563 C   0  0  0  0  0  0  0  0  0  0  0  0
    5.4702    0.2282    1.9972 C   0  0  1  0  0  0  0  0  0  0  0  0
    4.1095    0.6286    2.5939 C   0  0  0  0  0  0  0  0  0  0  0  0
    3.4469    1.4368    1.4111 C   0  0  1  0  0  0  0  0  0  0  0  0
    4.8861    1.2452    0.8556 C   0  0  0  0  0  0  0  0  0  0  0  0
    2.7843    2.2451    0.2281 C   0  0  0  0  0  0  0  0  0  0  0  0
    1.4237    2.6455    0.8250 C   0  0  1  0  0  0  0  0  0  0  0  0
    0.1933    2.1877    0.0749 C   0  0  0  0  0  0  0  0  0  0  0  0
   -1.2442    0.2964   -0.5120 C   0  0  0  0  0  0  0  0  0  0  0  0
   -2.2182    1.1503   -0.9941 C   0  0  0  0  0  0  0  0  0  0  0  0
   -3.3474    0.6357   -1.6118 C   0  0  0  0  0  0  0  0  0  0  0  0
   -3.5018   -0.7317   -1.7408 C   0  0  0  0  0  0  0  0  0  0  0  0
   -4.7266   -1.2762   -2.4036 C   0  0  0  0  0  0  0  0  0  0  0  0
   -6.2057   -3.2061   -2.5877 C   0  0  0  0  0  0  0  0  0  0  0  0
   -6.8553   -2.6257   -3.8044 C   0  0  0  0  0  0  0  0  0  0  0  0
   -7.6747   -2.9196   -2.5833 C   0  0  0  0  0  0  0  0  0  0  0  0
   -2.5251   -1.5884   -1.2573 C   0  0  0  0  0  0  0  0  0  0  0  0
   -1.3992   -1.0750   -0.6415 C   0  0  0  0  0  0  0  0  0  0  0  0
    2.0078    1.6285    1.9666 C   0  0  0  0  0  0  0  0  0  0  0  0
   -0.5053    2.9912   -0.5415 O   0  0  0  0  0  0  0  0  0  0  0  0
   -5.1709   -0.7598   -3.4271 O   0  0  0  0  0  0  0  0  0  0  0  0
   -2.7153   -3.2997   -1.4247 Cl  0  0  0  0  0  0  0  0  0  0  0  0
    7.5221    0.5618    4.6126 H   0  0  0  0  0  0  0  0  0  0  0  0
    6.8866   -0.8153    4.1024 H   0  0  0  0  0  0  0  0  0  0  0  0
    7.5834    0.3607    2.2258 H   0  0  0  0  0  0  0  0  0  0  0  0
    6.7106    1.7605    2.8028 H   0  0  0  0  0  0  0  0  0  0  0  0
    5.5862   -0.7967    1.7125 H   0  0  0  0  0  0  0  0  0  0  0  0
    3.5287   -0.2338    2.8467 H   0  0  0  0  0  0  0  0  0  0  0  0
    4.2328    1.2429    3.4613 H   0  0  0  0  0  0  0  0  0  0  0  0
    4.8842    0.7979   -0.1164 H   0  0  0  0  0  0  0  0  0  0  0  0
    5.4293    2.1665    0.8238 H   0  0  0  0  0  0  0  0  0  0  0  0
    3.3651    3.1075   -0.0247 H   0  0  0  0  0  0  0  0  0  0  0  0
    2.6609    1.6308   -0.6392 H   0  0  0  0  0  0  0  0  0  0  0  0
    1.3077    3.6704    1.1097 H   0  0  0  0  0  0  0  0  0  0  0  0
    0.4940    0.2767    0.5855 H   0  0  0  0  0  0  0  0  0  0  0  0
   -2.1038    2.1790   -0.8935 H   0  0  0  0  0  0  0  0  0  0  0  0
   -4.0784    1.2784   -1.9781 H   0  0  0  0  0  0  0  0  0  0  0  0
   -5.1117   -2.5503   -0.8802 H   0  0  0  0  0  0  0  0  0  0  0  0
   -5.9348   -4.2391   -2.6545 H   0  0  0  0  0  0  0  0  0  0  0  0
   -6.9732   -3.2230   -4.6843 H   0  0  0  0  0  0  0  0  0  0  0  0
   -6.6573   -1.6122   -4.0846 H   0  0  0  0  0  0  0  0  0  0  0  0
   -8.0613   -2.1159   -1.9922 H   0  0  0  0  0  0  0  0  0  0  0  0
   -8.3772   -3.7267   -2.5919 H   0  0  0  0  0  0  0  0  0  0  0  0
   -0.6683   -1.7177   -0.2751 H   0  0  0  0  0  0  0  0  0  0  0  0
    1.4644    0.7073    1.9984 H   0  0  0  0  0  0  0  0  0  0  0  0
    2.0097    2.0758    2.9386 H   0  0  0  0  0  0  0  0  0  0  0  0
  1 26  1  0  0  0  0
  1 27  1  0  0  0  0
  2 38  1  0  0  0  0
  3 41  1  0  0  0  0
  4  1  1  0  0  0  0
  4  5  1  0  0  0  0
  4 28  1  0  0  0  0
  4 29  1  0  0  0  0
  5  6  1  0  0  0  0
  5  8  1  0  0  0  0
  5 30  1  6  0  0  0
  6 31  1  0  0  0  0
  6 32  1  0  0  0  0
  7  6  1  6  0  0  0
  7  8  1  0  0  0  0
  7  9  1  0  0  0  0
  7 22  1  0  0  0  0
  8 33  1  0  0  0  0
  8 34  1  0  0  0  0
  9 10  1  0  0  0  0
  9 35  1  0  0  0  0
  9 36  1  0  0  0  0
 10 11  1  0  0  0  0
 10 22  1  0  0  0  0
 10 37  1  1  0  0  0
 11  2  1  0  0  0  0
 11 23  2  0  0  0  0
 12  2  1  0  0  0  0
 12 21  1  0  0  0  0
 12 13  2  0  0  0  0
 13 14  1  0  0  0  0
 13 39  1  0  0  0  0
 14 40  1  0  0  0  0
 14 15  2  0  0  0  0
 15 16  1  0  0  0  0
 15 20  1  0  0  0  0
 16  3  1  0  0  0  0
 16 24  2  0  0  0  0
 17  3  1  0  0  0  0
 17 18  1  0  0  0  0
 17 19  1  0  0  0  0
 17 42  1  0  0  0  0
 18 19  1  0  0  0  0
 18 43  1  0  0  0  0
 18 44  1  0  0  0  0
 19 45  1  0  0  0  0
 19 46  1  0  0  0  0
 20 25  1  0  0  0  0
 20 21  2  0  0  0  0
 21 47  1  0  0  0  0
 22 48  1  0  0  0  0
 22 49  1  0  0  0  0
M  END
>  <score>
0.40302574634552002

$$$$
PV-003488434618
 OpenBabel08202115463D

 46 49  0  0  0  0  0  0  0  0999 V2000
    3.4616    2.9819    1.9355 C   0  0  0  0  0  0  0  0  0  0  0  0
    0.8104    1.3711    0.3020 C   0  0  0  0  0  0  0  0  0  0  0  0
   -1.2608    0.4448   -0.7306 C   0  0  0  0  0  0  0  0  0  0  0  0
   -3.4256    0.0027   -1.8592 C   0  0  0  0  0  0  0  0  0  0  0  0
   -3.2823   -1.3719   -1.8456 C   0  0  0  0  0  0  0  0  0  0  0  0
   -4.3198   -2.1812   -2.2818 C   0  0  0  0  0  0  0  0  0  0  0  0
   -5.4955   -1.6134   -2.7352 C   0  0  0  0  0  0  0  0  0  0  0  0
   -7.0547   -3.5839   -2.6088 C   0  0  0  0  0  0  0  0  0  0  0  0
   -5.6391   -0.2348   -2.7488 C   0  0  0  0  0  0  0  0  0  0  0  0
   -4.6048    0.5723   -2.3139 C   0  0  0  0  0  0  0  0  0  0  0  0
    1.5104    0.2166    0.6783 C   0  0  0  0  0  0  0  0  0  0  0  0
    2.6678    0.6706    1.2646 C   0  0  0  0  0  0  0  0  0  0  0  0
    3.8219   -0.0990    1.8674 C   0  0  0  0  0  0  0  0  0  0  0  0
    4.0762    0.3360    3.3439 C   0  0  0  0  0  0  0  0  0  0  0  0
    5.5884    0.1641    3.5463 C   0  0  0  0  0  0  0  0  0  0  0  0
    6.2497    0.4841    2.2006 C   0  0  0  0  0  0  0  0  0  0  0  0
    5.1475    0.2561    1.1715 C   0  0  0  0  0  0  0  0  0  0  0  0
    2.6242    2.0235    1.2221 N   0  0  0  0  0  0  0  0  0  0  0  0
    1.4905    2.4746    0.6268 N   0  0  0  0  0  0  0  0  0  0  0  0
   -0.4404    1.4401   -0.3338 N   0  0  0  0  0  0  0  0  0  0  0  0
   -2.3750    0.8237   -1.4115 N   0  0  0  0  0  0  0  0  0  0  0  0
   -6.5256   -2.4922   -3.1765 N   0  0  0  0  0  0  0  0  0  0  0  0
   -7.9975   -4.0639   -3.4058 N   0  0  0  0  0  0  0  0  0  0  0  0
   -8.0277   -3.2312   -4.4802 N   0  0  0  0  0  0  0  0  0  0  0  0
   -7.1499   -2.2864   -4.3600 N   0  0  0  0  0  0  0  0  0  0  0  0
   -1.0271   -0.7483   -0.4965 O   0  0  0  0  0  0  0  0  0  0  0  0
    4.3539    2.4961    2.2713 H   0  0  0  0  0  0  0  0  0  0  0  0
    2.9257    3.3652    2.7786 H   0  0  0  0  0  0  0  0  0  0  0  0
    3.7195    3.7873    1.2799 H   0  0  0  0  0  0  0  0  0  0  0  0
   -0.7657    2.3463   -0.5164 H   0  0  0  0  0  0  0  0  0  0  0  0
   -2.4553    1.7792   -1.6137 H   0  0  0  0  0  0  0  0  0  0  0  0
   -2.3961   -1.7991   -1.5082 H   0  0  0  0  0  0  0  0  0  0  0  0
   -4.2135   -3.2156   -2.2678 H   0  0  0  0  0  0  0  0  0  0  0  0
   -6.7720   -3.9881   -1.6932 H   0  0  0  0  0  0  0  0  0  0  0  0
   -6.5253    0.1923   -3.0862 H   0  0  0  0  0  0  0  0  0  0  0  0
   -4.7111    1.6067   -2.3279 H   0  0  0  0  0  0  0  0  0  0  0  0
    1.2169   -0.7719    0.5428 H   0  0  0  0  0  0  0  0  0  0  0  0
    3.6231   -1.1485    1.8042 H   0  0  0  0  0  0  0  0  0  0  0  0
    3.5317   -0.2891    4.0204 H   0  0  0  0  0  0  0  0  0  0  0  0
    3.7896    1.3564    3.4911 H   0  0  0  0  0  0  0  0  0  0  0  0
    5.9390    0.8385    4.2994 H   0  0  0  0  0  0  0  0  0  0  0  0
    5.8099   -0.8417    3.8364 H   0  0  0  0  0  0  0  0  0  0  0  0
    7.0769   -0.1703    2.0204 H   0  0  0  0  0  0  0  0  0  0  0  0
    6.5859    1.4997    2.1762 H   0  0  0  0  0  0  0  0  0  0  0  0
    5.4313   -0.5476    0.5247 H   0  0  0  0  0  0  0  0  0  0  0  0
    5.0143    1.1481    0.5957 H   0  0  0  0  0  0  0  0  0  0  0  0
  1 18  1  0  0  0  0
  1 27  1  0  0  0  0
  1 28  1  0  0  0  0
  1 29  1  0  0  0  0
  2 20  1  0  0  0  0
  2 11  1  0  0  0  0
  2 19  2  0  0  0  0
  3 20  1  0  0  0  0
  3 21  1  0  0  0  0
  3 26  2  0  0  0  0
  4 21  1  0  0  0  0
  4 10  1  0  0  0  0
  4  5  2  0  0  0  0
  5  6  1  0  0  0  0
  5 32  1  0  0  0  0
  6 33  1  0  0  0  0
  6  7  2  0  0  0  0
  7 22  1  0  0  0  0
  7  9  1  0  0  0  0
  8 22  1  0  0  0  0
  8 34  1  0  0  0  0
  8 23  2  0  0  0  0
  9 35  1  0  0  0  0
  9 10  2  0  0  0  0
 10 36  1  0  0  0  0
 11 37  1  0  0  0  0
 11 12  2  0  0  0  0
 12 18  1  0  0  0  0
 12 13  1  0  0  0  0
 13 14  1  0  0  0  0
 13 17  1  0  0  0  0
 13 38  1  0  0  0  0
 14 15  1  0  0  0  0
 14 39  1  0  0  0  0
 14 40  1  0  0  0  0
 15 16  1  0  0  0  0
 15 41  1  0  0  0  0
 15 42  1  0  0  0  0
 16 17  1  0  0  0  0
 16 43  1  0  0  0  0
 16 44  1  0  0  0  0
 17 45  1  0  0  0  0
 17 46  1  0  0  0  0
 18 19  1  0  0  0  0
 20 30  1  0  0  0  0
 21 31  1  0  0  0  0
 22 25  1  0  0  0  0
 23 24  1  0  0  0  0
 24 25  2  0  0  0  0
M  END
>  <score>
0.40307885408401489

$$$$
Z4231763983
 OpenBabel08202115463D

 56 58  0  0  0  0  0  0  0  0999 V2000
    5.2182    1.4983    3.8009 C   0  0  0  0  0  0  0  0  0  0  0  0
    5.8479    1.7283    2.4109 C   0  0  0  0  0  0  0  0  0  0  0  0
    7.0064    0.7951    2.1847 C   0  0  0  0  0  0  0  0  0  0  0  0
    6.2236    3.1888    2.2200 C   0  0  0  0  0  0  0  0  0  0  0  0
    3.5289    1.9890    1.6768 C   0  0  0  0  0  0  0  0  0  0  0  0
    1.2698    2.0748    0.7445 C   0  0  0  0  0  0  0  0  0  0  0  0
    0.2333    1.0620    0.2431 C   0  0  1  0  0  0  0  0  0  0  0  0
    0.2593    0.9976   -1.2986 C   0  0  0  0  0  0  0  0  0  0  0  0
   -0.8254    0.0226   -1.7676 C   0  0  0  0  0  0  0  0  0  0  0  0
   -1.5490   -0.5460   -0.5435 C   0  0  1  0  0  0  0  0  0  0  0  0
   -2.6248   -1.5040   -1.0059 C   0  0  0  0  0  0  0  0  0  0  0  0
   -4.7860   -1.5455   -2.1562 C   0  0  0  0  0  0  0  0  0  0  0  0
   -4.7223   -2.9439   -2.1267 C   0  0  0  0  0  0  0  0  0  0  0  0
   -5.8078   -3.6365   -2.5958 C   0  0  0  0  0  0  0  0  0  0  0  0
   -6.8968   -2.8913   -3.0611 C   0  0  0  0  0  0  0  0  0  0  0  0
   -8.1182   -3.6040   -3.5642 C   0  0  0  0  0  0  0  0  0  0  0  0
   -0.5483   -1.3033    0.3344 C   0  0  0  0  0  0  0  0  0  0  0  0
    0.5375   -0.3303    0.8086 C   0  0  0  0  0  0  0  0  0  0  0  0
   -1.1728    1.4796    0.6882 C   0  0  0  0  0  0  0  0  0  0  0  0
    4.7020    1.3635    1.4806 O   0  0  0  0  0  0  0  0  0  0  0  0
    3.3324    2.8599    2.4864 O   0  0  0  0  0  0  0  0  0  0  0  0
   -2.1228    0.5257    0.2082 O   0  0  0  0  0  0  0  0  0  0  0  0
    2.6055    1.5051    0.8413 N   0  0  0  0  0  0  0  0  0  0  0  0
   -3.7269   -0.8237   -1.6884 N   0  0  0  0  0  0  0  0  0  0  0  0
   -6.9107   -1.5616   -3.0831 N   0  0  0  0  0  0  0  0  0  0  0  0
   -5.8392   -0.8798   -2.6227 N   0  0  0  0  0  0  0  0  0  0  0  0
   -8.2656   -4.8029   -2.9786 F   0  0  0  0  0  0  0  0  0  0  0  0
   -8.0232   -3.8382   -4.8922 F   0  0  0  0  0  0  0  0  0  0  0  0
    5.2318    2.4136    4.3550 H   0  0  0  0  0  0  0  0  0  0  0  0
    5.7788    0.7545    4.3275 H   0  0  0  0  0  0  0  0  0  0  0  0
    4.2074    1.1675    3.6839 H   0  0  0  0  0  0  0  0  0  0  0  0
    7.1239    0.6191    1.1358 H   0  0  0  0  0  0  0  0  0  0  0  0
    6.8189   -0.1331    2.6830 H   0  0  0  0  0  0  0  0  0  0  0  0
    7.9003    1.2355    2.5746 H   0  0  0  0  0  0  0  0  0  0  0  0
    6.8703    3.2835    1.3729 H   0  0  0  0  0  0  0  0  0  0  0  0
    6.7273    3.5444    3.0945 H   0  0  0  0  0  0  0  0  0  0  0  0
    5.3376    3.7665    2.0584 H   0  0  0  0  0  0  0  0  0  0  0  0
    2.8355    0.7400    0.2738 H   0  0  0  0  0  0  0  0  0  0  0  0
    1.2979    2.9013    0.0656 H   0  0  0  0  0  0  0  0  0  0  0  0
    0.9726    2.4184    1.7133 H   0  0  0  0  0  0  0  0  0  0  0  0
    0.0686    1.9699   -1.7027 H   0  0  0  0  0  0  0  0  0  0  0  0
    1.2180    0.6555   -1.6284 H   0  0  0  0  0  0  0  0  0  0  0  0
   -0.3754   -0.7753   -2.3207 H   0  0  0  0  0  0  0  0  0  0  0  0
   -1.5260    0.5383   -2.3907 H   0  0  0  0  0  0  0  0  0  0  0  0
   -3.0152   -2.0186   -0.1529 H   0  0  0  0  0  0  0  0  0  0  0  0
   -2.1878   -2.2105   -1.6803 H   0  0  0  0  0  0  0  0  0  0  0  0
   -3.7040    0.1486   -1.8090 H   0  0  0  0  0  0  0  0  0  0  0  0
   -3.8829   -3.4383   -1.7626 H   0  0  0  0  0  0  0  0  0  0  0  0
   -5.8216   -4.6764   -2.6056 H   0  0  0  0  0  0  0  0  0  0  0  0
   -8.9681   -2.9866   -3.3606 H   0  0  0  0  0  0  0  0  0  0  0  0
   -0.0998   -2.0924   -0.2322 H   0  0  0  0  0  0  0  0  0  0  0  0
   -1.0551   -1.7155    1.1819 H   0  0  0  0  0  0  0  0  0  0  0  0
    0.5430   -0.2908    1.8778 H   0  0  0  0  0  0  0  0  0  0  0  0
    1.4934   -0.6597    0.4584 H   0  0  0  0  0  0  0  0  0  0  0  0
   -1.2129    1.5172    1.7568 H   0  0  0  0  0  0  0  0  0  0  0  0
   -1.4023    2.4450    0.2879 H   0  0  0  0  0  0  0  0  0  0  0  0
  1  2  1  0  0  0  0
  1 29  1  0  0  0  0
  1 30  1  0  0  0  0
  1 31  1  0  0  0  0
  2  3  1  0  0  0  0
  2  4  1  0  0  0  0
  2 20  1  0  0  0  0
  3 32  1  0  0  0  0
  3 33  1  0  0  0  0
  3 34  1  0  0  0  0
  4 35  1  0  0  0  0
  4 36  1  0  0  0  0
  4 37  1  0  0  0  0
  5 20  1  0  0  0  0
  5 23  1  0  0  0  0
  5 21  2  0  0  0  0
  6 23  1  0  0  0  0
  6 39  1  0  0  0  0
  6 40  1  0  0  0  0
  7  6  1  1  0  0  0
  7  8  1  0  0  0  0
  7 18  1  0  0  0  0
  7 19  1  0  0  0  0
  8  9  1  0  0  0  0
  8 41  1  0  0  0  0
  8 42  1  0  0  0  0
  9 10  1  0  0  0  0
  9 43  1  0  0  0  0
  9 44  1  0  0  0  0
 10 11  1  6  0  0  0
 10 17  1  0  0  0  0
 10 22  1  0  0  0  0
 11 24  1  0  0  0  0
 11 45  1  0  0  0  0
 11 46  1  0  0  0  0
 12 24  1  0  0  0  0
 12 26  1  0  0  0  0
 12 13  2  0  0  0  0
 13 14  1  0  0  0  0
 13 48  1  0  0  0  0
 14 49  1  0  0  0  0
 14 15  2  0  0  0  0
 15 16  1  0  0  0  0
 15 25  1  0  0  0  0
 16 27  1  0  0  0  0
 16 28  1  0  0  0  0
 16 50  1  0  0  0  0
 17 18  1  0  0  0  0
 17 51  1  0  0  0  0
 17 52  1  0  0  0  0
 18 53  1  0  0  0  0
 18 54  1  0  0  0  0
 19 22  1  0  0  0  0
 19 55  1  0  0  0  0
 19 56  1  0  0  0  0
 23 38  1  0  0  0  0
 24 47  1  0  0  0  0
 25 26  2  0  0  0  0
M  END
>  <score>
0.40323978662490845

$$$$
PV-003915669100
 OpenBabel08202115463D

 51 53  0  0  0  0  0  0  0  0999 V2000
   -7.8559   -2.2055   -3.3329 N   0  0  0  0  0  0  0  0  0  0  0  0
   -2.1668   -1.1530   -1.4714 N   0  0  0  0  0  0  0  0  0  0  0  0
    1.7568    0.2557    0.7322 N   0  0  0  0  0  0  0  0  0  0  0  0
   -4.0310   -3.0195   -1.8065 N   0  0  0  0  0  0  0  0  0  0  0  0
   -6.5668   -2.4812   -2.8200 C   0  0  0  0  0  0  0  0  0  0  0  0
   -5.6432   -1.4662   -2.6520 C   0  0  0  0  0  0  0  0  0  0  0  0
   -4.3967   -1.7791   -2.1441 C   0  0  0  0  0  0  0  0  0  0  0  0
   -3.3594   -0.7327   -1.9360 C   0  0  0  0  0  0  0  0  0  0  0  0
   -1.0574   -0.2184   -1.3549 C   0  0  0  0  0  0  0  0  0  0  0  0
   -1.0193    0.4801    0.0045 C   0  0  0  0  0  0  0  0  0  0  0  0
   -0.5438   -0.5025    1.0584 C   0  0  0  0  0  0  0  0  0  0  0  0
    0.8922   -0.9254    0.8065 C   0  0  0  0  0  0  0  0  0  0  0  0
    2.8179    0.4295    1.5313 C   0  0  0  0  0  0  0  0  0  0  0  0
    3.7061    1.5972    1.1944 C   0  0  0  0  0  0  0  0  0  0  0  0
    5.0428    1.5600    1.9235 C   0  0  0  0  0  0  0  0  0  0  0  0
    4.9480    1.8385    3.4617 C   0  0  0  0  0  0  0  0  0  0  0  0
    6.0366    2.8952    3.3122 C   0  0  0  0  0  0  0  0  0  0  0  0
    5.8785    2.8382    1.7791 C   0  0  0  0  0  0  0  0  0  0  0  0
    1.3635    1.2325   -0.2906 C   0  0  0  0  0  0  0  0  0  0  0  0
   -0.0763    1.6742   -0.0708 C   0  0  0  0  0  0  0  0  0  0  0  0
   -4.9348   -3.9945   -1.9787 C   0  0  0  0  0  0  0  0  0  0  0  0
   -6.2062   -3.7697   -2.4772 C   0  0  0  0  0  0  0  0  0  0  0  0
   -3.5963    0.4390   -2.1794 O   0  0  0  0  0  0  0  0  0  0  0  0
    3.0646   -0.3017    2.4763 O   0  0  0  0  0  0  0  0  0  0  0  0
    5.7406    0.3551    1.5823 O   0  0  0  0  0  0  0  0  0  0  0  0
   -7.0752   -4.7880   -2.6253 F   0  0  0  0  0  0  0  0  0  0  0  0
   -8.5362   -2.9106   -3.3532 H   0  0  0  0  0  0  0  0  0  0  0  0
   -8.0686   -1.3095   -3.6678 H   0  0  0  0  0  0  0  0  0  0  0  0
   -5.8820   -0.4856   -2.9031 H   0  0  0  0  0  0  0  0  0  0  0  0
   -2.0461   -2.0901   -1.2112 H   0  0  0  0  0  0  0  0  0  0  0  0
   -1.1531    0.5242   -2.1194 H   0  0  0  0  0  0  0  0  0  0  0  0
   -0.1416   -0.7547   -1.4906 H   0  0  0  0  0  0  0  0  0  0  0  0
   -2.0011    0.8216    0.2582 H   0  0  0  0  0  0  0  0  0  0  0  0
   -1.1716   -1.3687    1.0363 H   0  0  0  0  0  0  0  0  0  0  0  0
   -0.6075   -0.0396    2.0210 H   0  0  0  0  0  0  0  0  0  0  0  0
    0.9465   -1.4627   -0.1172 H   0  0  0  0  0  0  0  0  0  0  0  0
    1.2214   -1.5556    1.6062 H   0  0  0  0  0  0  0  0  0  0  0  0
    3.1976    2.5000    1.4613 H   0  0  0  0  0  0  0  0  0  0  0  0
    3.8925    1.5904    0.1408 H   0  0  0  0  0  0  0  0  0  0  0  0
    5.1982   -0.1731    0.9921 H   0  0  0  0  0  0  0  0  0  0  0  0
    5.2226    1.0075    4.0773 H   0  0  0  0  0  0  0  0  0  0  0  0
    4.0022    2.2231    3.7819 H   0  0  0  0  0  0  0  0  0  0  0  0
    6.9982    2.5848    3.6642 H   0  0  0  0  0  0  0  0  0  0  0  0
    5.7878    3.8429    3.7422 H   0  0  0  0  0  0  0  0  0  0  0  0
    6.7978    2.7030    1.2485 H   0  0  0  0  0  0  0  0  0  0  0  0
    5.3442    3.6664    1.3626 H   0  0  0  0  0  0  0  0  0  0  0  0
    1.4518    0.7852   -1.2586 H   0  0  0  0  0  0  0  0  0  0  0  0
    2.0074    2.0850   -0.2309 H   0  0  0  0  0  0  0  0  0  0  0  0
   -0.3753    2.3029   -0.8835 H   0  0  0  0  0  0  0  0  0  0  0  0
   -0.1359    2.2229    0.8458 H   0  0  0  0  0  0  0  0  0  0  0  0
   -4.6676   -4.9672   -1.7253 H   0  0  0  0  0  0  0  0  0  0  0  0
  1 27  1  0  0  0  0
  1 28  1  0  0  0  0
  2 30  1  0  0  0  0
  5  1  1  0  0  0  0
  5 22  1  0  0  0  0
  5  6  2  0  0  0  0
  6  7  1  0  0  0  0
  6 29  1  0  0  0  0
  7  8  1  0  0  0  0
  7  4  2  0  0  0  0
  8  2  1  0  0  0  0
  8 23  2  0  0  0  0
  9  2  1  0  0  0  0
  9 10  1  0  0  0  0
  9 31  1  0  0  0  0
  9 32  1  0  0  0  0
 10 11  1  0  0  0  0
 10 20  1  0  0  0  0
 10 33  1  0  0  0  0
 11 12  1  0  0  0  0
 11 34  1  0  0  0  0
 11 35  1  0  0  0  0
 12  3  1  0  0  0  0
 12 36  1  0  0  0  0
 12 37  1  0  0  0  0
 13  3  1  0  0  0  0
 13 14  1  0  0  0  0
 13 24  2  0  0  0  0
 14 15  1  0  0  0  0
 14 38  1  0  0  0  0
 14 39  1  0  0  0  0
 15 25  1  0  0  0  0
 15 16  1  0  0  0  0
 15 18  1  0  0  0  0
 16 17  1  0  0  0  0
 16 41  1  0  0  0  0
 16 42  1  0  0  0  0
 17 18  1  0  0  0  0
 17 43  1  0  0  0  0
 17 44  1  0  0  0  0
 18 45  1  0  0  0  0
 18 46  1  0  0  0  0
 19  3  1  0  0  0  0
 19 20  1  0  0  0  0
 19 47  1  0  0  0  0
 19 48  1  0  0  0  0
 20 49  1  0  0  0  0
 20 50  1  0  0  0  0
 21  4  1  0  0  0  0
 21 51  1  0  0  0  0
 21 22  2  0  0  0  0
 22 26  1  0  0  0  0
 25 40  1  0  0  0  0
M  END
>  <score>
0.40397948026657104

$$$$
PV-002725531990
 OpenBabel08202115463D

 54 54  0  0  0  0  0  0  0  0999 V2000
   -0.8894   -1.1363    0.8858 C   0  0  0  0  0  0  0  0  0  0  0  0
   -1.4539   -0.6296   -0.4315 C   0  0  1  0  0  0  0  0  0  0  0  0
   -0.3799   -0.0731   -1.3378 C   0  0  0  0  0  0  0  0  0  0  0  0
    0.0658    2.3356   -0.8921 C   0  0  0  0  0  0  0  0  0  0  0  0
    1.4119    0.5167    0.1581 C   0  0  0  0  0  0  0  0  0  0  0  0
    2.2006    1.5117    0.8802 C   0  0  0  0  0  0  0  0  0  0  0  0
    2.3373    2.8841    0.7225 C   0  0  0  0  0  0  0  0  0  0  0  0
    3.2311    3.3311    1.7066 C   0  0  0  0  0  0  0  0  0  0  0  0
    3.6282    2.2338    2.4457 C   0  0  0  0  0  0  0  0  0  0  0  0
    4.5655    2.0971    3.6173 C   0  0  0  0  0  0  0  0  0  0  0  0
    6.4740    2.8433    2.2996 C   0  0  0  0  0  0  0  0  0  0  0  0
    6.0590    0.4665    2.5944 C   0  0  0  0  0  0  0  0  0  0  0  0
   -3.3252   -1.4415   -1.8008 C   0  0  0  0  0  0  0  0  0  0  0  0
   -3.9033   -2.5511   -2.6096 C   0  0  2  0  0  0  0  0  0  0  0  0
   -5.3750   -2.7000   -2.1921 C   0  0  0  0  0  0  0  0  0  0  0  0
   -6.0257   -3.9091   -2.8757 C   0  0  0  0  0  0  0  0  0  0  0  0
   -6.2401   -1.4807   -2.5420 C   0  0  0  0  0  0  0  0  0  0  0  0
    0.4432    0.9409   -0.6762 N   0  0  0  0  0  0  0  0  0  0  0  0
    5.9482    1.8027    3.1905 N   0  0  0  0  0  0  0  0  0  0  0  0
    2.9880    1.1315    1.9248 N   0  0  0  0  0  0  0  0  0  0  0  0
   -2.1940   -1.6851   -1.1069 N   0  0  0  0  0  0  0  0  0  0  0  0
    1.6313   -0.6893    0.3116 O   0  0  0  0  0  0  0  0  0  0  0  0
   -3.8653   -0.3366   -1.7682 O   0  0  0  0  0  0  0  0  0  0  0  0
   -5.5436   -2.8256   -0.7898 O   0  0  0  0  0  0  0  0  0  0  0  0
   -3.2599   -3.8241   -2.3539 F   0  0  0  0  0  0  0  0  0  0  0  0
   -0.3910   -0.3362    1.3921 H   0  0  0  0  0  0  0  0  0  0  0  0
   -0.1930   -1.9259    0.6949 H   0  0  0  0  0  0  0  0  0  0  0  0
   -1.6867   -1.5034    1.4975 H   0  0  0  0  0  0  0  0  0  0  0  0
   -2.1349    0.1647   -0.2077 H   0  0  0  0  0  0  0  0  0  0  0  0
   -0.8478    0.3693   -2.1924 H   0  0  0  0  0  0  0  0  0  0  0  0
    0.2530   -0.8762   -1.6529 H   0  0  0  0  0  0  0  0  0  0  0  0
   -0.7243    2.3845   -1.6120 H   0  0  0  0  0  0  0  0  0  0  0  0
    0.9119    2.8818   -1.2539 H   0  0  0  0  0  0  0  0  0  0  0  0
   -0.2664    2.7620    0.0313 H   0  0  0  0  0  0  0  0  0  0  0  0
    1.8643    3.4722    0.0070 H   0  0  0  0  0  0  0  0  0  0  0  0
    3.5399    4.3133    1.8535 H   0  0  0  0  0  0  0  0  0  0  0  0
    4.2209    1.3009    4.2437 H   0  0  0  0  0  0  0  0  0  0  0  0
    4.5627    3.0132    4.1701 H   0  0  0  0  0  0  0  0  0  0  0  0
    7.5399    2.7652    2.2492 H   0  0  0  0  0  0  0  0  0  0  0  0
    6.2048    3.8068    2.6792 H   0  0  0  0  0  0  0  0  0  0  0  0
    6.0607    2.7168    1.3208 H   0  0  0  0  0  0  0  0  0  0  0  0
    7.0467    0.3292    2.2066 H   0  0  0  0  0  0  0  0  0  0  0  0
    5.3479    0.3702    1.8007 H   0  0  0  0  0  0  0  0  0  0  0  0
    5.8632   -0.2743    3.3412 H   0  0  0  0  0  0  0  0  0  0  0  0
    3.0841    0.2139    2.2551 H   0  0  0  0  0  0  0  0  0  0  0  0
   -1.8591   -2.6046   -1.0560 H   0  0  0  0  0  0  0  0  0  0  0  0
   -3.8399   -2.3079   -3.6496 H   0  0  0  0  0  0  0  0  0  0  0  0
   -5.4738   -4.7941   -2.6370 H   0  0  0  0  0  0  0  0  0  0  0  0
   -6.0238   -3.7629   -3.9357 H   0  0  0  0  0  0  0  0  0  0  0  0
   -7.0333   -4.0136   -2.5313 H   0  0  0  0  0  0  0  0  0  0  0  0
   -7.2338   -1.6305   -2.1745 H   0  0  0  0  0  0  0  0  0  0  0  0
   -6.2680   -1.3565   -3.6044 H   0  0  0  0  0  0  0  0  0  0  0  0
   -5.8215   -0.6053   -2.0910 H   0  0  0  0  0  0  0  0  0  0  0  0
   -5.2323   -3.6881   -0.5056 H   0  0  0  0  0  0  0  0  0  0  0  0
  1  2  1  0  0  0  0
  1 26  1  0  0  0  0
  1 27  1  0  0  0  0
  1 28  1  0  0  0  0
  2  3  1  0  0  0  0
  2 21  1  0  0  0  0
  2 29  1  1  0  0  0
  3 18  1  0  0  0  0
  3 30  1  0  0  0  0
  3 31  1  0  0  0  0
  4 18  1  0  0  0  0
  4 32  1  0  0  0  0
  4 33  1  0  0  0  0
  4 34  1  0  0  0  0
  5 18  1  0  0  0  0
  5  6  1  0  0  0  0
  5 22  2  0  0  0  0
  6 20  1  0  0  0  0
  6  7  2  0  0  0  0
  7  8  1  0  0  0  0
  7 35  1  0  0  0  0
  8 36  1  0  0  0  0
  8  9  2  0  0  0  0
  9 10  1  0  0  0  0
  9 20  1  0  0  0  0
 10 19  1  0  0  0  0
 10 37  1  0  0  0  0
 10 38  1  0  0  0  0
 11 19  1  0  0  0  0
 11 39  1  0  0  0  0
 11 40  1  0  0  0  0
 11 41  1  0  0  0  0
 12 19  1  0  0  0  0
 12 42  1  0  0  0  0
 12 43  1  0  0  0  0
 12 44  1  0  0  0  0
 13 21  1  0  0  0  0
 13 14  1  0  0  0  0
 13 23  2  0  0  0  0
 14 25  1  0  0  0  0
 14 15  1  0  0  0  0
 14 47  1  6  0  0  0
 15 16  1  0  0  0  0
 15 17  1  0  0  0  0
 15 24  1  0  0  0  0
 16 48  1  0  0  0  0
 16 49  1  0  0  0  0
 16 50  1  0  0  0  0
 17 51  1  0  0  0  0
 17 52  1  0  0  0  0
 17 53  1  0  0  0  0
 20 45  1  0  0  0  0
 21 46  1  0  0  0  0
 24 54  1  0  0  0  0
M  END
>  <score>
0.40492236614227295

$$$$
PV-003212571484
 OpenBabel08202115463D

 56 57  0  0  0  0  0  0  0  0999 V2000
   -8.6542   -2.6653   -4.7719 C   0  0  0  0  0  0  0  0  0  0  0  0
   -7.7413   -3.4422   -4.1902 C   0  0  0  0  0  0  0  0  0  0  0  0
   -6.5299   -2.9671   -3.4822 C   0  0  0  0  0  0  0  0  0  0  0  0
   -5.6312   -3.8901   -2.9704 C   0  0  0  0  0  0  0  0  0  0  0  0
   -4.5007   -3.4572   -2.3034 C   0  0  0  0  0  0  0  0  0  0  0  0
   -4.2629   -2.1001   -2.1510 C   0  0  0  0  0  0  0  0  0  0  0  0
   -3.0337   -1.6429   -1.4328 C   0  0  0  0  0  0  0  0  0  0  0  0
   -1.6583    0.2576   -0.7423 C   0  0  0  0  0  0  0  0  0  0  0  0
   -1.6498    1.7759   -0.8137 C   0  0  1  0  0  0  0  0  0  0  0  0
   -2.3683    2.5810    0.2276 C   0  0  0  0  0  0  0  0  0  0  0  0
   -0.8724    2.5816    0.1791 C   0  0  1  0  0  0  0  0  0  0  0  0
   -0.0630    1.8825    1.2592 C   0  0  0  0  0  0  0  0  0  0  0  0
    2.2776    1.4827    1.8755 C   0  0  0  0  0  0  0  0  0  0  0  0
    3.7119    1.5187    1.4200 C   0  0  0  0  0  0  0  0  0  0  0  0
    4.6743    0.9255    2.4359 C   0  0  2  0  0  0  0  0  0  0  0  0
    4.6610    1.7224    3.7302 C   0  0  0  0  0  0  0  0  0  0  0  0
    6.0844    0.8574    1.8725 C   0  0  0  0  0  0  0  0  0  0  0  0
    7.0831    0.2181    2.8235 C   0  0  0  0  0  0  0  0  0  0  0  0
    8.4125   -0.1153    2.1664 C   0  0  0  0  0  0  0  0  0  0  0  0
   -5.1591   -1.1800   -2.6614 C   0  0  0  0  0  0  0  0  0  0  0  0
   -6.2929   -1.6140   -3.3303 C   0  0  0  0  0  0  0  0  0  0  0  0
   -2.2930   -2.4453   -0.8888 O   0  0  0  0  0  0  0  0  0  0  0  0
    1.9775    1.0930    2.9919 O   0  0  0  0  0  0  0  0  0  0  0  0
    4.1995   -0.4101    2.6867 O   0  0  0  0  0  0  0  0  0  0  0  0
   -2.8030   -0.3269   -1.4248 N   0  0  0  0  0  0  0  0  0  0  0  0
    1.3748    1.9011    0.9839 N   0  0  0  0  0  0  0  0  0  0  0  0
   -8.5919   -1.6313   -4.6799 H   0  0  0  0  0  0  0  0  0  0  0  0
   -9.4292   -3.0930   -5.3178 H   0  0  0  0  0  0  0  0  0  0  0  0
   -7.8920   -4.4701   -4.2374 H   0  0  0  0  0  0  0  0  0  0  0  0
   -5.8076   -4.9083   -3.0883 H   0  0  0  0  0  0  0  0  0  0  0  0
   -3.8285   -4.1496   -1.9159 H   0  0  0  0  0  0  0  0  0  0  0  0
   -3.4264    0.2654   -1.8950 H   0  0  0  0  0  0  0  0  0  0  0  0
   -0.7628   -0.1121   -1.1965 H   0  0  0  0  0  0  0  0  0  0  0  0
   -1.6851   -0.0371    0.2860 H   0  0  0  0  0  0  0  0  0  0  0  0
   -1.6820    2.1794   -1.8042 H   0  0  0  0  0  0  0  0  0  0  0  0
   -2.8775    2.0871    1.0286 H   0  0  0  0  0  0  0  0  0  0  0  0
   -2.9131    3.4574   -0.0555 H   0  0  0  0  0  0  0  0  0  0  0  0
   -0.4290    3.4758   -0.2063 H   0  0  0  0  0  0  0  0  0  0  0  0
   -0.3863    0.8647    1.3252 H   0  0  0  0  0  0  0  0  0  0  0  0
   -0.2397    2.3747    2.1927 H   0  0  0  0  0  0  0  0  0  0  0  0
    1.6858    2.2319    0.1154 H   0  0  0  0  0  0  0  0  0  0  0  0
    3.9878    2.5374    1.2438 H   0  0  0  0  0  0  0  0  0  0  0  0
    3.7939    0.9638    0.5088 H   0  0  0  0  0  0  0  0  0  0  0  0
    5.2614    1.2244    4.4625 H   0  0  0  0  0  0  0  0  0  0  0  0
    3.6561    1.8035    4.0885 H   0  0  0  0  0  0  0  0  0  0  0  0
    5.0562    2.7005    3.5506 H   0  0  0  0  0  0  0  0  0  0  0  0
    4.9453   -0.9863    2.8697 H   0  0  0  0  0  0  0  0  0  0  0  0
    6.4116    1.8528    1.6558 H   0  0  0  0  0  0  0  0  0  0  0  0
    6.0615    0.2843    0.9692 H   0  0  0  0  0  0  0  0  0  0  0  0
    6.6571   -0.6862    3.2052 H   0  0  0  0  0  0  0  0  0  0  0  0
    7.2644    0.8962    3.6311 H   0  0  0  0  0  0  0  0  0  0  0  0
    9.1221   -0.3941    2.9172 H   0  0  0  0  0  0  0  0  0  0  0  0
    8.7728    0.7414    1.6361 H   0  0  0  0  0  0  0  0  0  0  0  0
    8.2786   -0.9280    1.4834 H   0  0  0  0  0  0  0  0  0  0  0  0
   -4.9828   -0.1618   -2.5435 H   0  0  0  0  0  0  0  0  0  0  0  0
   -6.9652   -0.9216   -3.7178 H   0  0  0  0  0  0  0  0  0  0  0  0
  1 27  1  0  0  0  0
  1 28  1  0  0  0  0
  1  2  2  0  0  0  0
  2  3  1  0  0  0  0
  2 29  1  0  0  0  0
  3 21  1  0  0  0  0
  3  4  2  0  0  0  0
  4  5  1  0  0  0  0
  4 30  1  0  0  0  0
  5 31  1  0  0  0  0
  5  6  2  0  0  0  0
  6  7  1  0  0  0  0
  6 20  1  0  0  0  0
  7 25  1  0  0  0  0
  7 22  2  0  0  0  0
  8 25  1  0  0  0  0
  8  9  1  0  0  0  0
  8 33  1  0  0  0  0
  8 34  1  0  0  0  0
  9 10  1  0  0  0  0
  9 11  1  0  0  0  0
  9 35  1  6  0  0  0
 10 11  1  0  0  0  0
 10 36  1  0  0  0  0
 10 37  1  0  0  0  0
 11 12  1  0  0  0  0
 11 38  1  6  0  0  0
 12 26  1  0  0  0  0
 12 39  1  0  0  0  0
 12 40  1  0  0  0  0
 13 26  1  0  0  0  0
 13 14  1  0  0  0  0
 13 23  2  0  0  0  0
 14 15  1  0  0  0  0
 14 42  1  0  0  0  0
 14 43  1  0  0  0  0
 15 16  1  0  0  0  0
 15 24  1  1  0  0  0
 15 17  1  0  0  0  0
 16 44  1  0  0  0  0
 16 45  1  0  0  0  0
 16 46  1  0  0  0  0
 17 18  1  0  0  0  0
 17 48  1  0  0  0  0
 17 49  1  0  0  0  0
 18 19  1  0  0  0  0
 18 50  1  0  0  0  0
 18 51  1  0  0  0  0
 19 52  1  0  0  0  0
 19 53  1  0  0  0  0
 19 54  1  0  0  0  0
 20 55  1  0  0  0  0
 20 21  2  0  0  0  0
 21 56  1  0  0  0  0
 24 47  1  0  0  0  0
 25 32  1  0  0  0  0
 26 41  1  0  0  0  0
M  END
>  <score>
0.40539753437042236

$$$$
PV-003993995358
 OpenBabel08202115463D

 56 58  0  0  0  0  0  0  0  0999 V2000
   -1.2209   -0.5313    0.7940 C   0  0  0  0  0  0  0  0  0  0  0  0
   -1.8235    0.1217   -0.4410 C   0  0  1  0  0  0  0  0  0  0  0  0
   -0.7465    0.6133   -1.3807 C   0  0  0  0  0  0  0  0  0  0  0  0
   -0.2500    3.0171   -0.9207 C   0  0  0  0  0  0  0  0  0  0  0  0
    1.2411    1.3168   -0.0623 C   0  0  0  0  0  0  0  0  0  0  0  0
    1.8611    2.4705    0.7018 C   0  0  0  0  0  0  0  0  0  0  0  0
    3.3048    2.1572    1.0105 C   0  0  0  0  0  0  0  0  0  0  0  0
    5.9395    0.9010    2.9570 C   0  0  0  0  0  0  0  0  0  0  0  0
    5.1865   -0.1157    3.7995 C   0  0  0  0  0  0  0  0  0  0  0  0
    6.4167    2.0545    3.8434 C   0  0  0  0  0  0  0  0  0  0  0  0
    7.1270    0.2279    2.2883 C   0  0  0  0  0  0  0  0  0  0  0  0
   -3.9474   -1.0581   -0.7186 C   0  0  0  0  0  0  0  0  0  0  0  0
   -4.7523   -2.0022   -1.5904 C   0  0  1  0  0  0  0  0  0  0  0  0
   -6.3138   -1.9750   -1.6518 C   0  0  0  0  0  0  0  0  0  0  0  0
   -6.2216   -2.0371   -3.2016 C   0  0  2  0  0  0  0  0  0  0  0  0
   -6.7763   -3.3190   -3.8084 C   0  0  0  0  0  0  0  0  0  0  0  0
   -4.7120   -2.0009   -3.1026 C   0  0  2  0  0  0  0  0  0  0  0  0
   -4.1994   -3.1930   -2.2849 C   0  0  0  0  0  0  0  0  0  0  0  0
    0.1309    1.6081   -0.7586 N   0  0  0  0  0  0  0  0  0  0  0  0
    3.7109    1.5830    2.1425 N   0  0  0  0  0  0  0  0  0  0  0  0
    5.0078    1.4181    1.9168 N   0  0  0  0  0  0  0  0  0  0  0  0
    5.4025    1.8558    0.7285 N   0  0  0  0  0  0  0  0  0  0  0  0
    4.3193    2.3351    0.1321 N   0  0  0  0  0  0  0  0  0  0  0  0
   -2.6875   -0.8416   -1.1069 N   0  0  0  0  0  0  0  0  0  0  0  0
    1.7383    0.1918   -0.0340 O   0  0  0  0  0  0  0  0  0  0  0  0
   -4.4400   -0.5343    0.2786 O   0  0  0  0  0  0  0  0  0  0  0  0
   -0.6226   -1.3681    0.4996 H   0  0  0  0  0  0  0  0  0  0  0  0
   -2.0061   -0.8642    1.4401 H   0  0  0  0  0  0  0  0  0  0  0  0
   -0.6102    0.1793    1.3108 H   0  0  0  0  0  0  0  0  0  0  0  0
   -2.4100    0.9601   -0.1277 H   0  0  0  0  0  0  0  0  0  0  0  0
   -1.2133    1.0552   -2.2361 H   0  0  0  0  0  0  0  0  0  0  0  0
   -0.1532   -0.2220   -1.6892 H   0  0  0  0  0  0  0  0  0  0  0  0
   -1.3035    3.0844   -1.0956 H   0  0  0  0  0  0  0  0  0  0  0  0
    0.2769    3.4353   -1.7528 H   0  0  0  0  0  0  0  0  0  0  0  0
   -0.0011    3.5582   -0.0318 H   0  0  0  0  0  0  0  0  0  0  0  0
    1.3261    2.6199    1.6163 H   0  0  0  0  0  0  0  0  0  0  0  0
    1.8090    3.3592    0.1082 H   0  0  0  0  0  0  0  0  0  0  0  0
    5.8333   -0.4970    4.5618 H   0  0  0  0  0  0  0  0  0  0  0  0
    4.8567   -0.9206    3.1764 H   0  0  0  0  0  0  0  0  0  0  0  0
    4.3395    0.3548    4.2533 H   0  0  0  0  0  0  0  0  0  0  0  0
    5.5717    2.5321    4.2938 H   0  0  0  0  0  0  0  0  0  0  0  0
    6.9515    2.7643    3.2475 H   0  0  0  0  0  0  0  0  0  0  0  0
    7.0604    1.6734    4.6085 H   0  0  0  0  0  0  0  0  0  0  0  0
    7.7356   -0.2434    3.0315 H   0  0  0  0  0  0  0  0  0  0  0  0
    7.7055    0.9617    1.7668 H   0  0  0  0  0  0  0  0  0  0  0  0
    6.7760   -0.5083    1.5957 H   0  0  0  0  0  0  0  0  0  0  0  0
   -2.3328   -1.3492   -1.8665 H   0  0  0  0  0  0  0  0  0  0  0  0
   -6.7877   -2.8232   -1.2036 H   0  0  0  0  0  0  0  0  0  0  0  0
   -6.7547   -1.0772   -1.2716 H   0  0  0  0  0  0  0  0  0  0  0  0
   -6.6485   -1.1921   -3.7001 H   0  0  0  0  0  0  0  0  0  0  0  0
   -7.8448   -3.2685   -3.8349 H   0  0  0  0  0  0  0  0  0  0  0  0
   -6.4737   -4.1551   -3.2133 H   0  0  0  0  0  0  0  0  0  0  0  0
   -6.4002   -3.4341   -4.8035 H   0  0  0  0  0  0  0  0  0  0  0  0
   -4.0820   -1.3652   -3.6910 H   0  0  0  0  0  0  0  0  0  0  0  0
   -4.7444   -4.1138   -2.2831 H   0  0  0  0  0  0  0  0  0  0  0  0
   -3.1504   -3.3988   -2.2399 H   0  0  0  0  0  0  0  0  0  0  0  0
  1  2  1  0  0  0  0
  1 27  1  0  0  0  0
  1 28  1  0  0  0  0
  1 29  1  0  0  0  0
  2  3  1  0  0  0  0
  2 24  1  0  0  0  0
  2 30  1  1  0  0  0
  3 19  1  0  0  0  0
  3 31  1  0  0  0  0
  3 32  1  0  0  0  0
  4 19  1  0  0  0  0
  4 33  1  0  0  0  0
  4 34  1  0  0  0  0
  4 35  1  0  0  0  0
  5 19  1  0  0  0  0
  5  6  1  0  0  0  0
  5 25  2  0  0  0  0
  6  7  1  0  0  0  0
  6 36  1  0  0  0  0
  6 37  1  0  0  0  0
  7 23  1  0  0  0  0
  7 20  2  0  0  0  0
  8 21  1  0  0  0  0
  8  9  1  0  0  0  0
  8 10  1  0  0  0  0
  8 11  1  0  0  0  0
  9 38  1  0  0  0  0
  9 39  1  0  0  0  0
  9 40  1  0  0  0  0
 10 41  1  0  0  0  0
 10 42  1  0  0  0  0
 10 43  1  0  0  0  0
 11 44  1  0  0  0  0
 11 45  1  0  0  0  0
 11 46  1  0  0  0  0
 12 24  1  0  0  0  0
 12 26  2  0  0  0  0
 13 12  1  1  0  0  0
 13 14  1  0  0  0  0
 13 17  1  0  0  0  0
 13 18  1  0  0  0  0
 14 15  1  0  0  0  0
 14 48  1  0  0  0  0
 14 49  1  0  0  0  0
 15 16  1  0  0  0  0
 15 17  1  0  0  0  0
 15 50  1  6  0  0  0
 16 51  1  0  0  0  0
 16 52  1  0  0  0  0
 16 53  1  0  0  0  0
 17 18  1  0  0  0  0
 17 54  1  6  0  0  0
 18 55  1  0  0  0  0
 18 56  1  0  0  0  0
 20 21  1  0  0  0  0
 21 22  1  0  0  0  0
 22 23  2  0  0  0  0
 24 47  1  0  0  0  0
M  END
>  <score>
0.40570610761642456

$$$$
Z3569821309
 OpenBabel08202115463D

 49 52  0  0  0  0  0  0  0  0999 V2000
    5.8858    0.7296    3.1653 C   0  0  0  0  0  0  0  0  0  0  0  0
    4.6218    1.3170    2.6109 C   0  0  1  0  0  0  0  0  0  0  0  0
    4.3695    2.7917    2.7191 C   0  0  0  0  0  0  0  0  0  0  0  0
    3.1055    3.3790    2.1647 C   0  0  0  0  0  0  0  0  0  0  0  0
    2.0938    2.4918    1.5022 C   0  0  0  0  0  0  0  0  0  0  0  0
    2.3460    1.0171    1.3939 C   0  0  1  0  0  0  0  0  0  0  0  0
    1.3342    0.1297    0.7313 C   0  0  0  0  0  0  0  0  0  0  0  0
   -0.9415   -0.1701   -0.4856 C   0  0  0  0  0  0  0  0  0  0  0  0
   -3.2172   -0.4700   -1.7026 C   0  0  2  0  0  0  0  0  0  0  0  0
   -4.5516   -0.2557   -2.3533 C   0  0  0  0  0  0  0  0  0  0  0  0
   -4.6481   -1.7249   -2.6397 C   0  0  2  0  0  0  0  0  0  0  0  0
   -3.3137   -1.9393   -1.9890 C   0  0  0  0  0  0  0  0  0  0  0  0
   -5.9825   -1.5105   -3.2904 C   0  0  0  0  0  0  0  0  0  0  0  0
   -6.0789   -2.9797   -3.5767 C   0  0  0  0  0  0  0  0  0  0  0  0
   -4.7446   -3.1941   -2.9260 C   0  0  0  0  0  0  0  0  0  0  0  0
    3.6100    0.4297    1.9483 C   0  0  0  0  0  0  0  0  0  0  0  0
    4.4556   -0.1390    2.2909 C   0  0  0  0  0  0  0  0  0  0  0  0
    0.0703    0.7172    0.1770 N   0  0  0  0  0  0  0  0  0  0  0  0
   -2.2054    0.4173   -1.0400 N   0  0  0  0  0  0  0  0  0  0  0  0
   -0.6893   -1.6448   -0.5938 O   0  0  0  0  0  0  0  0  0  0  0  0
    3.1417   -0.3121    1.5883 O   0  0  0  0  0  0  0  0  0  0  0  0
   -6.1754   -4.4489   -3.8631 F   0  0  0  0  0  0  0  0  0  0  0  0
   -7.4134   -2.7653   -4.2274 F   0  0  0  0  0  0  0  0  0  0  0  0
    5.8496    0.7507    4.2545 H   0  0  0  0  0  0  0  0  0  0  0  0
    6.7393    1.3125    2.8191 H   0  0  0  0  0  0  0  0  0  0  0  0
    5.9869   -0.3010    2.8252 H   0  0  0  0  0  0  0  0  0  0  0  0
    5.1964    3.2902    2.2132 H   0  0  0  0  0  0  0  0  0  0  0  0
    4.3914    3.0375    3.7808 H   0  0  0  0  0  0  0  0  0  0  0  0
    3.4023    4.1238    1.4263 H   0  0  0  0  0  0  0  0  0  0  0  0
    2.5973    3.8711    2.9939 H   0  0  0  0  0  0  0  0  0  0  0  0
    1.9662    2.8645    0.4858 H   0  0  0  0  0  0  0  0  0  0  0  0
    1.1612    2.6118    2.0535 H   0  0  0  0  0  0  0  0  0  0  0  0
    1.0375   -0.6151    1.4698 H   0  0  0  0  0  0  0  0  0  0  0  0
    1.8425   -0.3624   -0.0979 H   0  0  0  0  0  0  0  0  0  0  0  0
   -0.1096    1.7691    0.2542 H   0  0  0  0  0  0  0  0  0  0  0  0
   -2.3853    1.4692   -0.9628 H   0  0  0  0  0  0  0  0  0  0  0  0
   -2.7244   -0.3153   -2.6624 H   0  0  0  0  0  0  0  0  0  0  0  0
   -4.5162    0.3700   -3.2451 H   0  0  0  0  0  0  0  0  0  0  0  0
   -5.3212    0.1173   -1.6775 H   0  0  0  0  0  0  0  0  0  0  0  0
   -3.3491   -2.5650   -1.0971 H   0  0  0  0  0  0  0  0  0  0  0  0
   -2.5441   -2.3123   -2.6648 H   0  0  0  0  0  0  0  0  0  0  0  0
   -5.9472   -0.8848   -4.1822 H   0  0  0  0  0  0  0  0  0  0  0  0
   -6.7522   -1.1375   -2.6146 H   0  0  0  0  0  0  0  0  0  0  0  0
   -4.7799   -3.8198   -2.0342 H   0  0  0  0  0  0  0  0  0  0  0  0
   -3.9749   -3.5670   -3.6018 H   0  0  0  0  0  0  0  0  0  0  0  0
    3.3132   -0.3151    2.6867 H   0  0  0  0  0  0  0  0  0  0  0  0
    4.1182   -0.0624    1.1191 H   0  0  0  0  0  0  0  0  0  0  0  0
    4.4625   -0.7230    3.2112 H   0  0  0  0  0  0  0  0  0  0  0  0
    5.2675   -0.4703    1.6435 H   0  0  0  0  0  0  0  0  0  0  0  0
  1 24  1  0  0  0  0
  1 25  1  0  0  0  0
  1 26  1  0  0  0  0
  2  1  1  6  0  0  0
  2  3  1  0  0  0  0
  2 16  1  0  0  0  0
  2 17  1  0  0  0  0
  3  4  1  0  0  0  0
  3 27  1  0  0  0  0
  3 28  1  0  0  0  0
  4  5  1  0  0  0  0
  4 29  1  0  0  0  0
  4 30  1  0  0  0  0
  5  6  1  0  0  0  0
  5 31  1  0  0  0  0
  5 32  1  0  0  0  0
  6  7  1  6  0  0  0
  6 16  1  0  0  0  0
  6 21  1  0  0  0  0
  7 18  1  0  0  0  0
  7 33  1  0  0  0  0
  7 34  1  0  0  0  0
  8 18  1  0  0  0  0
  8 19  1  0  0  0  0
  8 20  2  0  0  0  0
  9 19  1  0  0  0  0
  9 10  1  0  0  0  0
  9 12  1  0  0  0  0
  9 37  1  6  0  0  0
 10 38  1  0  0  0  0
 10 39  1  0  0  0  0
 11 10  1  1  0  0  0
 11 12  1  0  0  0  0
 11 13  1  0  0  0  0
 11 15  1  0  0  0  0
 12 40  1  0  0  0  0
 12 41  1  0  0  0  0
 13 14  1  0  0  0  0
 13 42  1  0  0  0  0
 13 43  1  0  0  0  0
 14 22  1  0  0  0  0
 14 23  1  0  0  0  0
 14 15  1  0  0  0  0
 15 44  1  0  0  0  0
 15 45  1  0  0  0  0
 16 46  1  0  0  0  0
 16 47  1  0  0  0  0
 17 21  1  0  0  0  0
 17 48  1  0  0  0  0
 17 49  1  0  0  0  0
 18 35  1  0  0  0  0
 19 36  1  0  0  0  0
M  END
>  <score>
0.40616965293884277

$$$$
PV-003581679748
 OpenBabel08202115463D

 54 55  0  0  0  0  0  0  0  0999 V2000
    7.3871    3.8420    2.2957 C   0  0  0  0  0  0  0  0  0  0  0  0
    7.0917    3.1110    3.5951 C   0  0  0  0  0  0  0  0  0  0  0  0
    6.6831    1.6774    3.3855 C   0  0  0  0  0  0  0  0  0  0  0  0
    5.5079    1.2216    2.9177 C   0  0  0  0  0  0  0  0  0  0  0  0
    4.2217    1.8234    2.4495 C   0  0  0  0  0  0  0  0  0  0  0  0
    2.0765    1.4486    1.3371 C   0  0  0  0  0  0  0  0  0  0  0  0
    1.3684    0.3768    0.5244 C   0  0  0  0  0  0  0  0  0  0  0  0
   -0.0752    0.7232    0.1982 C   0  0  1  0  0  0  0  0  0  0  0  0
   -0.1625    1.9884   -0.6395 C   0  0  0  0  0  0  0  0  0  0  0  0
   -0.7786   -0.4441   -0.4748 C   0  0  0  0  0  0  0  0  0  0  0  0
   -2.2863   -0.2710   -0.5601 C   0  0  0  0  0  0  0  0  0  0  0  0
   -4.2933   -1.5771   -1.0934 C   0  0  0  0  0  0  0  0  0  0  0  0
   -4.8353   -2.8854   -1.6352 C   0  0  1  0  0  0  0  0  0  0  0  0
   -6.3828   -2.9694   -1.6577 C   0  0  0  0  0  0  0  0  0  0  0  0
   -6.3599   -3.0743   -3.2266 C   0  0  1  0  0  0  0  0  0  0  0  0
   -7.0351   -1.9124   -3.9369 C   0  0  0  0  0  0  0  0  0  0  0  0
   -4.8125   -2.9903   -3.2041 C   0  0  0  0  0  0  0  0  0  0  0  0
    7.4562    0.5140    3.6393 C   0  0  0  0  0  0  0  0  0  0  0  0
    4.0014    3.0150    2.5909 O   0  0  0  0  0  0  0  0  0  0  0  0
   -5.0409   -0.6891   -0.7179 O   0  0  0  0  0  0  0  0  0  0  0  0
   -6.8639   -4.2909   -3.7304 O   0  0  0  0  0  0  0  0  0  0  0  0
    5.5317   -0.1338    2.8729 O   0  0  0  0  0  0  0  0  0  0  0  0
    3.3472    0.9902    1.8784 N   0  0  0  0  0  0  0  0  0  0  0  0
   -2.9619   -1.4705   -1.0582 N   0  0  0  0  0  0  0  0  0  0  0  0
    6.7862   -0.5769    3.3453 N   0  0  0  0  0  0  0  0  0  0  0  0
    7.7151    4.8372    2.5123 H   0  0  0  0  0  0  0  0  0  0  0  0
    6.4997    3.8812    1.6991 H   0  0  0  0  0  0  0  0  0  0  0  0
    8.1544    3.3223    1.7608 H   0  0  0  0  0  0  0  0  0  0  0  0
    6.2980    3.6209    4.1000 H   0  0  0  0  0  0  0  0  0  0  0  0
    7.9717    3.1288    4.2036 H   0  0  0  0  0  0  0  0  0  0  0  0
    3.5692    0.0374    1.8221 H   0  0  0  0  0  0  0  0  0  0  0  0
    2.2574    2.2936    0.7062 H   0  0  0  0  0  0  0  0  0  0  0  0
    1.4424    1.7381    2.1489 H   0  0  0  0  0  0  0  0  0  0  0  0
    1.3805   -0.5358    1.0830 H   0  0  0  0  0  0  0  0  0  0  0  0
    1.9004    0.2405   -0.3939 H   0  0  0  0  0  0  0  0  0  0  0  0
   -0.5783    0.9132    1.1232 H   0  0  0  0  0  0  0  0  0  0  0  0
    0.2332    2.8128   -0.0838 H   0  0  0  0  0  0  0  0  0  0  0  0
   -1.1854    2.1829   -0.8858 H   0  0  0  0  0  0  0  0  0  0  0  0
    0.4033    1.8604   -1.5386 H   0  0  0  0  0  0  0  0  0  0  0  0
   -0.5702   -1.3331    0.0830 H   0  0  0  0  0  0  0  0  0  0  0  0
   -0.3922   -0.5464   -1.4674 H   0  0  0  0  0  0  0  0  0  0  0  0
   -2.5012    0.5428   -1.2207 H   0  0  0  0  0  0  0  0  0  0  0  0
   -2.6614   -0.0468    0.4166 H   0  0  0  0  0  0  0  0  0  0  0  0
   -2.4188   -2.2213   -1.3769 H   0  0  0  0  0  0  0  0  0  0  0  0
   -4.3600   -3.7033   -1.1352 H   0  0  0  0  0  0  0  0  0  0  0  0
   -6.7796   -3.8346   -1.1688 H   0  0  0  0  0  0  0  0  0  0  0  0
   -6.8724   -2.0934   -1.2865 H   0  0  0  0  0  0  0  0  0  0  0  0
   -6.8313   -1.9680   -4.9858 H   0  0  0  0  0  0  0  0  0  0  0  0
   -6.6575   -0.9895   -3.5489 H   0  0  0  0  0  0  0  0  0  0  0  0
   -8.0918   -1.9618   -3.7760 H   0  0  0  0  0  0  0  0  0  0  0  0
   -7.1834   -4.1591   -4.6260 H   0  0  0  0  0  0  0  0  0  0  0  0
   -4.3230   -3.8663   -3.5754 H   0  0  0  0  0  0  0  0  0  0  0  0
   -4.4158   -2.1251   -3.6931 H   0  0  0  0  0  0  0  0  0  0  0  0
    8.4278    0.5241    4.0102 H   0  0  0  0  0  0  0  0  0  0  0  0
  1  2  1  0  0  0  0
  1 26  1  0  0  0  0
  1 27  1  0  0  0  0
  1 28  1  0  0  0  0
  2  3  1  0  0  0  0
  2 29  1  0  0  0  0
  2 30  1  0  0  0  0
  3 18  1  0  0  0  0
  3  4  2  0  0  0  0
  4  5  1  0  0  0  0
  4 22  1  0  0  0  0
  5 23  1  0  0  0  0
  5 19  2  0  0  0  0
  6 23  1  0  0  0  0
  6  7  1  0  0  0  0
  6 32  1  0  0  0  0
  6 33  1  0  0  0  0
  7  8  1  0  0  0  0
  7 34  1  0  0  0  0
  7 35  1  0  0  0  0
  8  9  1  0  0  0  0
  8 10  1  0  0  0  0
  8 36  1  1  0  0  0
  9 37  1  0  0  0  0
  9 38  1  0  0  0  0
  9 39  1  0  0  0  0
 10 11  1  0  0  0  0
 10 40  1  0  0  0  0
 10 41  1  0  0  0  0
 11 24  1  0  0  0  0
 11 42  1  0  0  0  0
 11 43  1  0  0  0  0
 12 24  1  0  0  0  0
 12 13  1  0  0  0  0
 12 20  2  0  0  0  0
 13 14  1  0  0  0  0
 13 17  1  0  0  0  0
 13 45  1  1  0  0  0
 14 15  1  0  0  0  0
 14 46  1  0  0  0  0
 14 47  1  0  0  0  0
 15 16  1  0  0  0  0
 15 21  1  6  0  0  0
 15 17  1  0  0  0  0
 16 48  1  0  0  0  0
 16 49  1  0  0  0  0
 16 50  1  0  0  0  0
 17 52  1  0  0  0  0
 17 53  1  0  0  0  0
 18 54  1  0  0  0  0
 18 25  2  0  0  0  0
 21 51  1  0  0  0  0
 23 31  1  0  0  0  0
 24 44  1  0  0  0  0
 25 22  1  0  0  0  0
M  END
>  <score>
0.40659016370773315

$$$$
PV-003978868798
 OpenBabel08202115463D

 47 49  0  0  0  0  0  0  0  0999 V2000
   -6.1277   -3.9343   -2.9537 C   0  0  0  0  0  0  0  0  0  0  0  0
   -3.7798   -3.7832   -2.1702 C   0  0  0  0  0  0  0  0  0  0  0  0
   -2.9345   -2.8107   -1.6539 C   0  0  0  0  0  0  0  0  0  0  0  0
   -3.6384   -1.5977   -1.6620 C   0  0  0  0  0  0  0  0  0  0  0  0
   -3.1062   -0.2719   -1.1909 C   0  0  0  0  0  0  0  0  0  0  0  0
   -0.9909    0.9171   -0.5072 C   0  0  0  0  0  0  0  0  0  0  0  0
    0.3728    0.4816   -0.0313 C   0  0  0  0  0  0  0  0  0  0  0  0
    1.2866    1.5916    0.4235 C   0  0  0  0  0  0  0  0  0  0  0  0
    3.4775    1.8663    1.5643 C   0  0  0  0  0  0  0  0  0  0  0  0
    4.6049    1.1612    2.2174 C   0  0  0  0  0  0  0  0  0  0  0  0
    4.7148   -0.2149    2.0924 C   0  0  0  0  0  0  0  0  0  0  0  0
    5.7599   -0.8827    2.7023 C   0  0  0  0  0  0  0  0  0  0  0  0
    6.7011   -0.1759    3.4344 C   0  0  0  0  0  0  0  0  0  0  0  0
    6.5914    1.1963    3.5589 C   0  0  0  0  0  0  0  0  0  0  0  0
    5.5432    1.8662    2.9473 C   0  0  0  0  0  0  0  0  0  0  0  0
   -1.6949    1.9286    0.4262 C   0  0  0  0  0  0  0  0  0  0  0  0
   -1.6929    2.9123   -0.7212 C   0  0  0  0  0  0  0  0  0  0  0  0
   -0.9614    1.9851   -1.6175 C   0  0  0  0  0  0  0  0  0  0  0  0
   -4.8963   -1.8433   -2.1769 C   0  0  0  0  0  0  0  0  0  0  0  0
   -4.9634   -3.1847   -2.4809 N   0  0  0  0  0  0  0  0  0  0  0  0
   -1.8196   -0.2979   -0.8398 N   0  0  0  0  0  0  0  0  0  0  0  0
    2.4963    1.0929    1.0607 N   0  0  0  0  0  0  0  0  0  0  0  0
   -3.8215    0.7272   -1.1459 O   0  0  0  0  0  0  0  0  0  0  0  0
    3.4573    3.0995    1.4956 O   0  0  0  0  0  0  0  0  0  0  0  0
    7.7224   -0.8262    4.0244 F   0  0  0  0  0  0  0  0  0  0  0  0
    5.4017    3.2025    3.0389 F   0  0  0  0  0  0  0  0  0  0  0  0
   -6.1014   -3.9988   -4.0214 H   0  0  0  0  0  0  0  0  0  0  0  0
   -7.0223   -3.4327   -2.6489 H   0  0  0  0  0  0  0  0  0  0  0  0
   -6.1108   -4.9195   -2.5365 H   0  0  0  0  0  0  0  0  0  0  0  0
   -3.5504   -4.7896   -2.2972 H   0  0  0  0  0  0  0  0  0  0  0  0
   -1.9593   -2.9550   -1.3223 H   0  0  0  0  0  0  0  0  0  0  0  0
   -1.3799   -1.1725   -0.7946 H   0  0  0  0  0  0  0  0  0  0  0  0
    0.8543   -0.0325   -0.8368 H   0  0  0  0  0  0  0  0  0  0  0  0
    0.2362   -0.1902    0.7903 H   0  0  0  0  0  0  0  0  0  0  0  0
    0.7587    2.2054    1.1230 H   0  0  0  0  0  0  0  0  0  0  0  0
    1.5641    2.1776   -0.4277 H   0  0  0  0  0  0  0  0  0  0  0  0
    2.6052    0.1214    1.1284 H   0  0  0  0  0  0  0  0  0  0  0  0
    4.0109   -0.7448    1.5398 H   0  0  0  0  0  0  0  0  0  0  0  0
    5.8402   -1.9156    2.6119 H   0  0  0  0  0  0  0  0  0  0  0  0
    7.2953    1.7261    4.1116 H   0  0  0  0  0  0  0  0  0  0  0  0
   -1.1133    2.2316    1.2716 H   0  0  0  0  0  0  0  0  0  0  0  0
   -2.6690    1.6285    0.7518 H   0  0  0  0  0  0  0  0  0  0  0  0
   -1.1539    3.8119   -0.5088 H   0  0  0  0  0  0  0  0  0  0  0  0
   -2.6734    3.1578   -1.0723 H   0  0  0  0  0  0  0  0  0  0  0  0
   -1.4989    1.7140   -2.5021 H   0  0  0  0  0  0  0  0  0  0  0  0
    0.0211    2.3151   -1.8835 H   0  0  0  0  0  0  0  0  0  0  0  0
   -5.6540   -1.1435   -2.3106 H   0  0  0  0  0  0  0  0  0  0  0  0
  1 20  1  0  0  0  0
  1 27  1  0  0  0  0
  1 28  1  0  0  0  0
  1 29  1  0  0  0  0
  2 20  1  0  0  0  0
  2 30  1  0  0  0  0
  2  3  2  0  0  0  0
  3  4  1  0  0  0  0
  3 31  1  0  0  0  0
  4  5  1  0  0  0  0
  4 19  2  0  0  0  0
  5 21  1  0  0  0  0
  5 23  2  0  0  0  0
  6 21  1  0  0  0  0
  6  7  1  0  0  0  0
  6 16  1  0  0  0  0
  6 18  1  0  0  0  0
  7  8  1  0  0  0  0
  7 33  1  0  0  0  0
  7 34  1  0  0  0  0
  8 22  1  0  0  0  0
  8 35  1  0  0  0  0
  8 36  1  0  0  0  0
  9 22  1  0  0  0  0
  9 10  1  0  0  0  0
  9 24  2  0  0  0  0
 10 15  1  0  0  0  0
 10 11  2  0  0  0  0
 11 12  1  0  0  0  0
 11 38  1  0  0  0  0
 12 39  1  0  0  0  0
 12 13  2  0  0  0  0
 13 25  1  0  0  0  0
 13 14  1  0  0  0  0
 14 40  1  0  0  0  0
 14 15  2  0  0  0  0
 15 26  1  0  0  0  0
 16 17  1  0  0  0  0
 16 41  1  0  0  0  0
 16 42  1  0  0  0  0
 17 18  1  0  0  0  0
 17 43  1  0  0  0  0
 17 44  1  0  0  0  0
 18 45  1  0  0  0  0
 18 46  1  0  0  0  0
 19 20  1  0  0  0  0
 19 47  1  0  0  0  0
 21 32  1  0  0  0  0
 22 37  1  0  0  0  0
M  END
>  <score>
0.40845942497253418

$$$$
PV-004096476458
 OpenBabel08202115463D

 49 50  0  0  0  0  0  0  0  0999 V2000
    6.8622    0.0430    3.2851 C   0  0  0  0  0  0  0  0  0  0  0  0
    4.9152    1.2890    2.7263 C   0  0  0  0  0  0  0  0  0  0  0  0
    4.4651    2.6653    2.2427 C   0  0  2  0  0  0  0  0  0  0  0  0
    4.9377    3.7753    3.2273 C   0  0  0  0  0  0  0  0  0  0  0  0
    2.9556    2.6746    2.0647 C   0  0  0  0  0  0  0  0  0  0  0  0
    2.3996    1.5816    1.1728 C   0  0  0  0  0  0  0  0  0  0  0  0
    0.3780    0.6508    0.1477 C   0  0  0  0  0  0  0  0  0  0  0  0
   -1.1228    0.7886    0.2161 C   0  0  0  0  0  0  0  0  0  0  0  0
   -1.9124   -0.0214   -0.8328 C   0  0  0  0  0  0  0  0  0  0  0  0
   -3.4152    0.1315   -0.7793 C   0  0  0  0  0  0  0  0  0  0  0  0
   -4.4254   -2.0332   -1.6414 C   0  0  0  0  0  0  0  0  0  0  0  0
   -4.9453   -2.3636   -2.8681 C   0  0  0  0  0  0  0  0  0  0  0  0
   -5.4896   -3.6967   -3.3581 C   0  0  0  0  0  0  0  0  0  0  0  0
   -5.7412   -3.9026   -4.8190 C   0  0  0  0  0  0  0  0  0  0  0  0
   -6.8940   -3.7584   -3.8709 C   0  0  0  0  0  0  0  0  0  0  0  0
    6.3252    1.1888    2.6343 O   0  0  0  0  0  0  0  0  0  0  0  0
    5.0589    2.7781    0.9365 O   0  0  0  0  0  0  0  0  0  0  0  0
    3.1438    0.8157    0.5620 O   0  0  0  0  0  0  0  0  0  0  0  0
   -4.9852   -4.8001   -2.6085 O   0  0  0  0  0  0  0  0  0  0  0  0
    1.0616    1.5126    1.1005 N   0  0  0  0  0  0  0  0  0  0  0  0
   -4.0998   -0.7300   -1.7375 N   0  0  0  0  0  0  0  0  0  0  0  0
   -4.9049   -1.2455   -3.6514 N   0  0  0  0  0  0  0  0  0  0  0  0
   -4.3912   -0.2558   -2.9663 N   0  0  0  0  0  0  0  0  0  0  0  0
   -1.5990   -1.3134   -0.6604 F   0  0  0  0  0  0  0  0  0  0  0  0
   -1.4766    0.3548   -2.0434 F   0  0  0  0  0  0  0  0  0  0  0  0
    6.4691   -0.8426    2.8312 H   0  0  0  0  0  0  0  0  0  0  0  0
    6.5931    0.0624    4.3206 H   0  0  0  0  0  0  0  0  0  0  0  0
    7.9282    0.0477    3.1930 H   0  0  0  0  0  0  0  0  0  0  0  0
    4.6148    1.1540    3.7443 H   0  0  0  0  0  0  0  0  0  0  0  0
    4.4645    0.5332    2.1176 H   0  0  0  0  0  0  0  0  0  0  0  0
    5.9943    3.6946    3.3760 H   0  0  0  0  0  0  0  0  0  0  0  0
    4.4358    3.6574    4.1649 H   0  0  0  0  0  0  0  0  0  0  0  0
    4.7079    4.7366    2.8175 H   0  0  0  0  0  0  0  0  0  0  0  0
    5.8855    2.2904    0.9171 H   0  0  0  0  0  0  0  0  0  0  0  0
    2.6789    3.6179    1.6423 H   0  0  0  0  0  0  0  0  0  0  0  0
    2.5086    2.5711    3.0313 H   0  0  0  0  0  0  0  0  0  0  0  0
    0.5261    2.0617    1.7105 H   0  0  0  0  0  0  0  0  0  0  0  0
    0.6388   -0.3657    0.3564 H   0  0  0  0  0  0  0  0  0  0  0  0
    0.7012    0.9071   -0.8396 H   0  0  0  0  0  0  0  0  0  0  0  0
   -1.3651    1.8225    0.0847 H   0  0  0  0  0  0  0  0  0  0  0  0
   -1.4393    0.4681    1.1866 H   0  0  0  0  0  0  0  0  0  0  0  0
   -3.6642    1.1496   -0.9947 H   0  0  0  0  0  0  0  0  0  0  0  0
   -3.7503   -0.1174    0.2059 H   0  0  0  0  0  0  0  0  0  0  0  0
   -4.3083   -2.6551   -0.8161 H   0  0  0  0  0  0  0  0  0  0  0  0
   -4.6608   -5.4745   -3.2098 H   0  0  0  0  0  0  0  0  0  0  0  0
   -5.5340   -4.8510   -5.2691 H   0  0  0  0  0  0  0  0  0  0  0  0
   -5.5202   -3.1209   -5.5154 H   0  0  0  0  0  0  0  0  0  0  0  0
   -7.4957   -2.8738   -3.8908 H   0  0  0  0  0  0  0  0  0  0  0  0
   -7.5095   -4.6039   -3.6445 H   0  0  0  0  0  0  0  0  0  0  0  0
  1 16  1  0  0  0  0
  1 26  1  0  0  0  0
  1 27  1  0  0  0  0
  1 28  1  0  0  0  0
  2 16  1  0  0  0  0
  2  3  1  0  0  0  0
  2 29  1  0  0  0  0
  2 30  1  0  0  0  0
  3  4  1  0  0  0  0
  3 17  1  6  0  0  0
  3  5  1  0  0  0  0
  4 31  1  0  0  0  0
  4 32  1  0  0  0  0
  4 33  1  0  0  0  0
  5  6  1  0  0  0  0
  5 35  1  0  0  0  0
  5 36  1  0  0  0  0
  6 20  1  0  0  0  0
  6 18  2  0  0  0  0
  7 20  1  0  0  0  0
  7  8  1  0  0  0  0
  7 38  1  0  0  0  0
  7 39  1  0  0  0  0
  8  9  1  0  0  0  0
  8 40  1  0  0  0  0
  8 41  1  0  0  0  0
  9 24  1  0  0  0  0
  9 25  1  0  0  0  0
  9 10  1  0  0  0  0
 10 21  1  0  0  0  0
 10 42  1  0  0  0  0
 10 43  1  0  0  0  0
 11 21  1  0  0  0  0
 11 44  1  0  0  0  0
 11 12  2  0  0  0  0
 12 13  1  0  0  0  0
 12 22  1  0  0  0  0
 13 19  1  0  0  0  0
 13 14  1  0  0  0  0
 13 15  1  0  0  0  0
 14 15  1  0  0  0  0
 14 46  1  0  0  0  0
 14 47  1  0  0  0  0
 15 48  1  0  0  0  0
 15 49  1  0  0  0  0
 17 34  1  0  0  0  0
 19 45  1  0  0  0  0
 20 37  1  0  0  0  0
 21 23  1  0  0  0  0
 22 23  2  0  0  0  0
M  END
>  <score>
0.40859562158584595

$$$$
Z4455388448
 OpenBabel08202115463D

 54 55  0  0  0  0  0  0  0  0999 V2000
   -6.7304   -1.5094   -3.1907 C   0  0  0  0  0  0  0  0  0  0  0  0
   -5.2861   -2.0220   -3.1951 C   0  0  0  0  0  0  0  0  0  0  0  0
   -5.1755   -3.3498   -2.4634 C   0  0  0  0  0  0  0  0  0  0  0  0
   -4.3316   -0.9866   -2.6231 C   0  0  0  0  0  0  0  0  0  0  0  0
   -2.9103   -1.4997   -2.4657 C   0  0  0  0  0  0  0  0  0  0  0  0
   -2.5330    0.1953   -0.7909 C   0  0  0  0  0  0  0  0  0  0  0  0
   -1.5504    1.1673   -0.1592 C   0  0  0  0  0  0  0  0  0  0  0  0
   -0.3138    0.4451    0.3249 C   0  0  0  0  0  0  0  0  0  0  0  0
    2.0609    0.9525    1.0868 C   0  0  0  0  0  0  0  0  0  0  0  0
    2.9495    2.0210    1.7564 C   0  0  0  0  0  0  0  0  0  0  0  0
    4.3868    1.5947    2.0488 C   0  0  0  0  0  0  0  0  0  0  0  0
    5.1291    2.7601    2.6920 C   0  0  0  0  0  0  0  0  0  0  0  0
    6.5342    2.3039    3.1188 C   0  0  0  0  0  0  0  0  0  0  0  0
    5.7843    0.0444    3.3802 C   0  0  0  0  0  0  0  0  0  0  0  0
    4.3666    0.3769    2.9660 C   0  0  0  0  0  0  0  0  0  0  0  0
    0.2866   -0.3733   -0.7962 C   0  0  0  0  0  0  0  0  0  0  0  0
   -0.7549   -1.3026   -1.4014 C   0  0  0  0  0  0  0  0  0  0  0  0
   -1.9077   -0.5475   -1.8811 N   0  0  0  0  0  0  0  0  0  0  0  0
    0.6938    1.4512    0.7982 N   0  0  0  0  0  0  0  0  0  0  0  0
    2.3563    2.3725    2.9061 F   0  0  0  0  0  0  0  0  0  0  0  0
    2.9656    3.0930    0.9515 F   0  0  0  0  0  0  0  0  0  0  0  0
    6.4132    1.1762    3.9997 O   0  0  0  0  0  0  0  0  0  0  0  0
   -7.1193   -1.5288   -4.1873 H   0  0  0  0  0  0  0  0  0  0  0  0
   -6.7514   -0.5061   -2.8194 H   0  0  0  0  0  0  0  0  0  0  0  0
   -7.3289   -2.1354   -2.5623 H   0  0  0  0  0  0  0  0  0  0  0  0
   -5.0082   -2.1902   -4.2146 H   0  0  0  0  0  0  0  0  0  0  0  0
   -5.6504   -3.2716   -1.5078 H   0  0  0  0  0  0  0  0  0  0  0  0
   -4.1434   -3.5979   -2.3293 H   0  0  0  0  0  0  0  0  0  0  0  0
   -5.6550   -4.1144   -3.0382 H   0  0  0  0  0  0  0  0  0  0  0  0
   -4.6925   -0.6871   -1.6614 H   0  0  0  0  0  0  0  0  0  0  0  0
   -4.3163   -0.1408   -3.2782 H   0  0  0  0  0  0  0  0  0  0  0  0
   -2.5595   -1.7836   -3.4359 H   0  0  0  0  0  0  0  0  0  0  0  0
   -2.9457   -2.3614   -1.8324 H   0  0  0  0  0  0  0  0  0  0  0  0
   -3.3683    0.7427   -1.1749 H   0  0  0  0  0  0  0  0  0  0  0  0
   -2.8701   -0.4947   -0.0459 H   0  0  0  0  0  0  0  0  0  0  0  0
   -1.2665    1.8999   -0.8855 H   0  0  0  0  0  0  0  0  0  0  0  0
   -2.0211    1.6511    0.6710 H   0  0  0  0  0  0  0  0  0  0  0  0
   -0.5777   -0.2038    1.1337 H   0  0  0  0  0  0  0  0  0  0  0  0
    0.3460    1.8526    1.6217 H   0  0  0  0  0  0  0  0  0  0  0  0
    2.5182    0.6531    0.1670 H   0  0  0  0  0  0  0  0  0  0  0  0
    1.9874    0.1086    1.7405 H   0  0  0  0  0  0  0  0  0  0  0  0
    4.8751    1.3332    1.1333 H   0  0  0  0  0  0  0  0  0  0  0  0
    5.2135    3.5608    1.9873 H   0  0  0  0  0  0  0  0  0  0  0  0
    4.5876    3.0962    3.5514 H   0  0  0  0  0  0  0  0  0  0  0  0
    7.0984    2.0240    2.2537 H   0  0  0  0  0  0  0  0  0  0  0  0
    7.0319    3.1035    3.6264 H   0  0  0  0  0  0  0  0  0  0  0  0
    6.3455   -0.2382    2.5141 H   0  0  0  0  0  0  0  0  0  0  0  0
    5.7649   -0.7696    4.0745 H   0  0  0  0  0  0  0  0  0  0  0  0
    3.7810    0.5929    3.8351 H   0  0  0  0  0  0  0  0  0  0  0  0
    3.9408   -0.4558    2.4462 H   0  0  0  0  0  0  0  0  0  0  0  0
    1.0960   -0.9571   -0.4101 H   0  0  0  0  0  0  0  0  0  0  0  0
    0.6522    0.2861   -1.5554 H   0  0  0  0  0  0  0  0  0  0  0  0
   -0.3173   -1.8329   -2.2213 H   0  0  0  0  0  0  0  0  0  0  0  0
   -1.0777   -1.9997   -0.6566 H   0  0  0  0  0  0  0  0  0  0  0  0
  1  2  1  0  0  0  0
  1 23  1  0  0  0  0
  1 24  1  0  0  0  0
  1 25  1  0  0  0  0
  2  3  1  0  0  0  0
  2  4  1  0  0  0  0
  2 26  1  0  0  0  0
  3 27  1  0  0  0  0
  3 28  1  0  0  0  0
  3 29  1  0  0  0  0
  4  5  1  0  0  0  0
  4 30  1  0  0  0  0
  4 31  1  0  0  0  0
  5 18  1  0  0  0  0
  5 32  1  0  0  0  0
  5 33  1  0  0  0  0
  6 18  1  0  0  0  0
  6  7  1  0  0  0  0
  6 34  1  0  0  0  0
  6 35  1  0  0  0  0
  7  8  1  0  0  0  0
  7 36  1  0  0  0  0
  7 37  1  0  0  0  0
  8 19  1  0  0  0  0
  8 16  1  0  0  0  0
  8 38  1  0  0  0  0
  9 19  1  0  0  0  0
  9 10  1  0  0  0  0
  9 40  1  0  0  0  0
  9 41  1  0  0  0  0
 10 20  1  0  0  0  0
 10 21  1  0  0  0  0
 10 11  1  0  0  0  0
 11 12  1  0  0  0  0
 11 15  1  0  0  0  0
 11 42  1  0  0  0  0
 12 13  1  0  0  0  0
 12 43  1  0  0  0  0
 12 44  1  0  0  0  0
 13 22  1  0  0  0  0
 13 45  1  0  0  0  0
 13 46  1  0  0  0  0
 14 22  1  0  0  0  0
 14 15  1  0  0  0  0
 14 47  1  0  0  0  0
 14 48  1  0  0  0  0
 15 49  1  0  0  0  0
 15 50  1  0  0  0  0
 16 17  1  0  0  0  0
 16 51  1  0  0  0  0
 16 52  1  0  0  0  0
 17 18  1  0  0  0  0
 17 53  1  0  0  0  0
 17 54  1  0  0  0  0
 19 39  1  0  0  0  0
M  END
>  <score>
0.40914672613143921

$$$$
PV-003882768471
 OpenBabel08202115463D

 48 49  0  0  0  0  0  0  0  0999 V2000
    5.6129    1.1688    0.9252 C   0  0  0  0  0  0  0  0  0  0  0  0
    4.9728    1.8757    2.1089 C   0  0  0  0  0  0  0  0  0  0  0  0
    4.4777    3.2572    1.7131 C   0  0  0  0  0  0  0  0  0  0  0  0
    5.9190    1.9086    3.2980 C   0  0  0  0  0  0  0  0  0  0  0  0
    2.8718    0.8801    1.4891 C   0  0  0  0  0  0  0  0  0  0  0  0
    0.8239   -0.3536    1.0853 C   0  0  0  0  0  0  0  0  0  0  0  0
   -0.4380    0.4720    1.3397 C   0  0  1  0  0  0  0  0  0  0  0  0
   -0.3136    1.9666    0.9692 C   0  0  0  0  0  0  0  0  0  0  0  0
   -0.9816    1.6569   -0.3809 C   0  0  0  0  0  0  0  0  0  0  0  0
   -1.5318    0.3499    0.2256 C   0  0  1  0  0  0  0  0  0  0  0  0
   -1.3912   -0.8462   -0.6510 C   0  0  0  0  0  0  0  0  0  0  0  0
   -2.6488   -2.4641   -1.8658 C   0  0  0  0  0  0  0  0  0  0  0  0
   -4.0371   -2.6435   -2.4075 C   0  0  0  0  0  0  0  0  0  0  0  0
   -5.0123   -1.6760   -2.2396 C   0  0  0  0  0  0  0  0  0  0  0  0
   -6.2714   -1.9051   -2.7590 C   0  0  0  0  0  0  0  0  0  0  0  0
   -6.5085   -3.0927   -3.4263 C   0  0  0  0  0  0  0  0  0  0  0  0
   -7.7979   -3.3742   -3.9768 C   0  0  0  0  0  0  0  0  0  0  0  0
   -5.4759   -4.0025   -3.5511 C   0  0  0  0  0  0  0  0  0  0  0  0
    3.8512    1.0185    2.3987 O   0  0  0  0  0  0  0  0  0  0  0  0
    2.8151    1.4639    0.4287 O   0  0  0  0  0  0  0  0  0  0  0  0
   -0.3832   -1.4382   -0.9093 O   0  0  0  0  0  0  0  0  0  0  0  0
   -2.5920   -1.2167   -1.1556 O   0  0  0  0  0  0  0  0  0  0  0  0
    1.9596   -0.0022    1.9246 N   0  0  0  0  0  0  0  0  0  0  0  0
   -8.8312   -3.6094   -4.4234 N   0  0  0  0  0  0  0  0  0  0  0  0
   -4.2517   -3.7972   -3.0557 N   0  0  0  0  0  0  0  0  0  0  0  0
    6.4958    1.6959    0.6293 H   0  0  0  0  0  0  0  0  0  0  0  0
    4.9220    1.1441    0.1086 H   0  0  0  0  0  0  0  0  0  0  0  0
    5.8717    0.1689    1.2046 H   0  0  0  0  0  0  0  0  0  0  0  0
    4.0630    3.2191    0.7274 H   0  0  0  0  0  0  0  0  0  0  0  0
    5.2954    3.9470    1.7294 H   0  0  0  0  0  0  0  0  0  0  0  0
    3.7260    3.5778    2.4038 H   0  0  0  0  0  0  0  0  0  0  0  0
    6.3588    0.9423    3.4314 H   0  0  0  0  0  0  0  0  0  0  0  0
    5.3747    2.1771    4.1792 H   0  0  0  0  0  0  0  0  0  0  0  0
    6.6895    2.6295    3.1206 H   0  0  0  0  0  0  0  0  0  0  0  0
    2.0584   -0.4109    2.8099 H   0  0  0  0  0  0  0  0  0  0  0  0
    0.5887   -1.3832    1.2568 H   0  0  0  0  0  0  0  0  0  0  0  0
    1.1104   -0.2181    0.0633 H   0  0  0  0  0  0  0  0  0  0  0  0
   -0.7914    0.2874    2.3326 H   0  0  0  0  0  0  0  0  0  0  0  0
   -0.8754    2.6249    1.5984 H   0  0  0  0  0  0  0  0  0  0  0  0
    0.6936    2.3193    0.8921 H   0  0  0  0  0  0  0  0  0  0  0  0
   -1.7346    2.3593   -0.6717 H   0  0  0  0  0  0  0  0  0  0  0  0
   -0.2958    1.5133   -1.1896 H   0  0  0  0  0  0  0  0  0  0  0  0
   -2.5385    0.4148    0.5824 H   0  0  0  0  0  0  0  0  0  0  0  0
   -2.4147   -3.2687   -1.2004 H   0  0  0  0  0  0  0  0  0  0  0  0
   -1.9459   -2.4519   -2.6726 H   0  0  0  0  0  0  0  0  0  0  0  0
   -4.8011   -0.7932   -1.7319 H   0  0  0  0  0  0  0  0  0  0  0  0
   -7.0265   -1.1982   -2.6504 H   0  0  0  0  0  0  0  0  0  0  0  0
   -5.6608   -4.8924   -4.0564 H   0  0  0  0  0  0  0  0  0  0  0  0
  1  2  1  0  0  0  0
  1 26  1  0  0  0  0
  1 27  1  0  0  0  0
  1 28  1  0  0  0  0
  2  3  1  0  0  0  0
  2  4  1  0  0  0  0
  2 19  1  0  0  0  0
  3 29  1  0  0  0  0
  3 30  1  0  0  0  0
  3 31  1  0  0  0  0
  4 32  1  0  0  0  0
  4 33  1  0  0  0  0
  4 34  1  0  0  0  0
  5 19  1  0  0  0  0
  5 23  1  0  0  0  0
  5 20  2  0  0  0  0
  6 23  1  0  0  0  0
  6  7  1  0  0  0  0
  6 36  1  0  0  0  0
  6 37  1  0  0  0  0
  7  8  1  0  0  0  0
  7 10  1  0  0  0  0
  7 38  1  1  0  0  0
  8  9  1  0  0  0  0
  8 39  1  0  0  0  0
  8 40  1  0  0  0  0
  9 10  1  0  0  0  0
  9 41  1  0  0  0  0
  9 42  1  0  0  0  0
 10 11  1  0  0  0  0
 10 43  1  1  0  0  0
 11 22  1  0  0  0  0
 11 21  2  0  0  0  0
 12 22  1  0  0  0  0
 12 13  1  0  0  0  0
 12 44  1  0  0  0  0
 12 45  1  0  0  0  0
 13 25  1  0  0  0  0
 13 14  2  0  0  0  0
 14 15  1  0  0  0  0
 14 46  1  0  0  0  0
 15 47  1  0  0  0  0
 15 16  2  0  0  0  0
 16 17  1  0  0  0  0
 16 18  1  0  0  0  0
 17 24  3  0  0  0  0
 18 48  1  0  0  0  0
 18 25  2  0  0  0  0
 23 35  1  0  0  0  0
M  END
>  <score>
0.40917372703552246

$$$$
PV-003236460208
 OpenBabel08202115463D

 54 57  0  0  0  0  0  0  0  0999 V2000
   -3.3745   -1.7919   -0.3422 O   0  0  0  0  0  0  0  0  0  0  0  0
    2.3853    1.8693    2.8230 O   0  0  0  0  0  0  0  0  0  0  0  0
   -3.4550   -1.2570   -1.4472 C   0  0  0  0  0  0  0  0  0  0  0  0
   -4.4957   -1.6836   -2.4477 C   0  0  0  0  0  0  0  0  0  0  0  0
   -5.4001   -2.7905   -1.9308 C   0  0  0  0  0  0  0  0  0  0  0  0
   -6.2742   -3.3862   -3.0018 C   0  0  0  0  0  0  0  0  0  0  0  0
   -7.2976   -2.6353   -3.5487 C   0  0  0  0  0  0  0  0  0  0  0  0
   -8.0627   -3.2466   -4.5213 C   0  0  0  0  0  0  0  0  0  0  0  0
   -6.8213   -5.1313   -4.3354 C   0  0  0  0  0  0  0  0  0  0  0  0
   -1.6776    0.3531   -0.9417 C   0  0  0  0  0  0  0  0  0  0  0  0
   -0.3015   -0.3005   -0.8395 C   0  0  1  0  0  0  0  0  0  0  0  0
    0.8420    0.2243   -1.6554 C   0  0  0  0  0  0  0  0  0  0  0  0
    0.8325    0.4104   -0.1704 C   0  0  1  0  0  0  0  0  0  0  0  0
    0.7134    1.7469    0.5255 C   0  0  0  0  0  0  0  0  0  0  0  0
    2.7385    2.4225    1.7946 C   0  0  0  0  0  0  0  0  0  0  0  0
    4.0541    3.1644    1.7143 C   0  0  1  0  0  0  0  0  0  0  0  0
    4.7996    3.6983    2.9010 C   0  0  0  0  0  0  0  0  0  0  0  0
    5.3418    2.5305    2.1386 C   0  0  1  0  0  0  0  0  0  0  0  0
    5.4663    1.1090    2.6981 C   0  0  0  0  0  0  0  0  0  0  0  0
    6.7594    0.8547    3.5135 C   0  0  0  0  0  0  0  0  0  0  0  0
    5.9284    1.1157    4.7964 C   0  0  0  0  0  0  0  0  0  0  0  0
    4.6430    0.8553    3.9819 C   0  0  0  0  0  0  0  0  0  0  0  0
   -7.8371   -4.5032   -4.9319 N   0  0  0  0  0  0  0  0  0  0  0  0
   -6.0178   -4.6471   -3.3885 N   0  0  0  0  0  0  0  0  0  0  0  0
   -2.6369   -0.2687   -1.8422 N   0  0  0  0  0  0  0  0  0  0  0  0
    2.0057    2.4180    0.6774 N   0  0  0  0  0  0  0  0  0  0  0  0
   -3.9984   -2.0334   -3.3282 H   0  0  0  0  0  0  0  0  0  0  0  0
   -5.1008   -0.8357   -2.6922 H   0  0  0  0  0  0  0  0  0  0  0  0
   -6.0280   -2.3871   -1.1641 H   0  0  0  0  0  0  0  0  0  0  0  0
   -4.7882   -3.5663   -1.5200 H   0  0  0  0  0  0  0  0  0  0  0  0
   -7.4819   -1.6586   -3.2426 H   0  0  0  0  0  0  0  0  0  0  0  0
   -8.8439   -2.7122   -4.9523 H   0  0  0  0  0  0  0  0  0  0  0  0
   -6.6362   -6.1071   -4.6438 H   0  0  0  0  0  0  0  0  0  0  0  0
   -2.6874    0.0451   -2.7693 H   0  0  0  0  0  0  0  0  0  0  0  0
   -2.1080    0.3546    0.0379 H   0  0  0  0  0  0  0  0  0  0  0  0
   -1.5328    1.3612   -1.2698 H   0  0  0  0  0  0  0  0  0  0  0  0
   -0.3181   -1.3621   -0.7066 H   0  0  0  0  0  0  0  0  0  0  0  0
    0.6970    1.0653   -2.3009 H   0  0  0  0  0  0  0  0  0  0  0  0
    1.5350   -0.4557   -2.1050 H   0  0  0  0  0  0  0  0  0  0  0  0
    1.4998   -0.2549    0.3367 H   0  0  0  0  0  0  0  0  0  0  0  0
    0.2916    1.5915    1.4965 H   0  0  0  0  0  0  0  0  0  0  0  0
    0.0659    2.3759   -0.0488 H   0  0  0  0  0  0  0  0  0  0  0  0
    2.3598    2.9001   -0.0987 H   0  0  0  0  0  0  0  0  0  0  0  0
    4.1442    3.7763    0.8412 H   0  0  0  0  0  0  0  0  0  0  0  0
    4.4072    3.5582    3.8866 H   0  0  0  0  0  0  0  0  0  0  0  0
    5.2879    4.6486    2.8428 H   0  0  0  0  0  0  0  0  0  0  0  0
    6.1635    2.7917    1.5049 H   0  0  0  0  0  0  0  0  0  0  0  0
    5.2921    0.4006    1.9154 H   0  0  0  0  0  0  0  0  0  0  0  0
    7.1501   -0.1379    3.4304 H   0  0  0  0  0  0  0  0  0  0  0  0
    7.5425    1.5626    3.3386 H   0  0  0  0  0  0  0  0  0  0  0  0
    6.0125    2.1105    5.1812 H   0  0  0  0  0  0  0  0  0  0  0  0
    6.1011    0.4123    5.5841 H   0  0  0  0  0  0  0  0  0  0  0  0
    3.8584    1.5624    4.1530 H   0  0  0  0  0  0  0  0  0  0  0  0
    4.2546   -0.1377    4.0711 H   0  0  0  0  0  0  0  0  0  0  0  0
  3  4  1  0  0  0  0
  3 25  1  0  0  0  0
  3  1  2  0  0  0  0
  4  5  1  0  0  0  0
  4 27  1  0  0  0  0
  4 28  1  0  0  0  0
  5  6  1  0  0  0  0
  5 29  1  0  0  0  0
  5 30  1  0  0  0  0
  6 24  1  0  0  0  0
  6  7  2  0  0  0  0
  7  8  1  0  0  0  0
  7 31  1  0  0  0  0
  8 32  1  0  0  0  0
  8 23  2  0  0  0  0
  9 23  1  0  0  0  0
  9 33  1  0  0  0  0
  9 24  2  0  0  0  0
 10 25  1  0  0  0  0
 10 11  1  0  0  0  0
 10 35  1  0  0  0  0
 10 36  1  0  0  0  0
 11 12  1  0  0  0  0
 11 13  1  0  0  0  0
 11 37  1  1  0  0  0
 12 13  1  0  0  0  0
 12 38  1  0  0  0  0
 12 39  1  0  0  0  0
 13 14  1  0  0  0  0
 13 40  1  1  0  0  0
 14 26  1  0  0  0  0
 14 41  1  0  0  0  0
 14 42  1  0  0  0  0
 15 26  1  0  0  0  0
 15 16  1  0  0  0  0
 15  2  2  0  0  0  0
 16 17  1  0  0  0  0
 16 18  1  0  0  0  0
 16 44  1  6  0  0  0
 17 18  1  0  0  0  0
 17 45  1  0  0  0  0
 17 46  1  0  0  0  0
 18 19  1  0  0  0  0
 18 47  1  6  0  0  0
 19 20  1  0  0  0  0
 19 22  1  0  0  0  0
 19 48  1  0  0  0  0
 20 21  1  0  0  0  0
 20 49  1  0  0  0  0
 20 50  1  0  0  0  0
 21 22  1  0  0  0  0
 21 51  1  0  0  0  0
 21 52  1  0  0  0  0
 22 53  1  0  0  0  0
 22 54  1  0  0  0  0
 25 34  1  0  0  0  0
 26 43  1  0  0  0  0
M  END
>  <score>
0.41002607345581055

$$$$
PV-003692961409
 OpenBabel08202115463D

 46 48  0  0  0  0  0  0  0  0999 V2000
    5.6228    2.9111    4.4158 C   0  0  0  0  0  0  0  0  0  0  0  0
    5.3687    1.6801    3.5492 C   0  0  1  0  0  0  0  0  0  0  0  0
    4.4114    1.7157    2.3994 C   0  0  2  0  0  0  0  0  0  0  0  0
    3.4419    0.6194    2.0352 C   0  0  0  0  0  0  0  0  0  0  0  0
    2.3732    2.3259    0.6915 C   0  0  0  0  0  0  0  0  0  0  0  0
    1.4438    0.0191    0.7798 C   0  0  2  0  0  0  0  0  0  0  0  0
    1.2430   -0.0479   -0.7785 C   0  0  0  0  0  0  0  0  0  0  0  0
   -0.2091    0.4700   -0.6193 C   0  0  2  0  0  0  0  0  0  0  0  0
   -2.2756   -0.1087   -1.8020 C   0  0  0  0  0  0  0  0  0  0  0  0
   -3.1678   -1.2315   -2.1834 C   0  0  0  0  0  0  0  0  0  0  0  0
   -4.3816   -1.1953   -2.8233 C   0  0  0  0  0  0  0  0  0  0  0  0
   -5.8808   -3.1099   -3.6336 C   0  0  0  0  0  0  0  0  0  0  0  0
   -6.9437   -3.4778   -2.6238 C   0  0  0  0  0  0  0  0  0  0  0  0
   -0.0084    0.5371    0.9389 C   0  0  0  0  0  0  0  0  0  0  0  0
    5.8870    1.6299    2.1463 C   0  0  0  0  0  0  0  0  0  0  0  0
    3.5650   -0.5090    2.4825 O   0  0  0  0  0  0  0  0  0  0  0  0
   -2.5040    1.0388   -2.1609 O   0  0  0  0  0  0  0  0  0  0  0  0
   -7.4385   -2.3464   -1.9198 O   0  0  0  0  0  0  0  0  0  0  0  0
    2.4641    0.9659    1.2086 N   0  0  0  0  0  0  0  0  0  0  0  0
   -1.2285   -0.4761   -1.0478 N   0  0  0  0  0  0  0  0  0  0  0  0
   -4.7152   -2.4857   -3.0168 N   0  0  0  0  0  0  0  0  0  0  0  0
   -3.7582   -3.3028   -2.5306 N   0  0  0  0  0  0  0  0  0  0  0  0
   -2.8208   -2.5428   -2.0243 N   0  0  0  0  0  0  0  0  0  0  0  0
    6.3879    0.4290    1.7468 F   0  0  0  0  0  0  0  0  0  0  0  0
    6.5107    2.7343    1.6757 F   0  0  0  0  0  0  0  0  0  0  0  0
    4.7834    3.0746    5.0589 H   0  0  0  0  0  0  0  0  0  0  0  0
    5.7627    3.7663    3.7881 H   0  0  0  0  0  0  0  0  0  0  0  0
    6.5003    2.7553    5.0079 H   0  0  0  0  0  0  0  0  0  0  0  0
    5.4054    0.7507    4.0781 H   0  0  0  0  0  0  0  0  0  0  0  0
    4.0156    2.6932    2.2182 H   0  0  0  0  0  0  0  0  0  0  0  0
    2.1450    2.9980    1.4923 H   0  0  0  0  0  0  0  0  0  0  0  0
    1.6004    2.3757   -0.0468 H   0  0  0  0  0  0  0  0  0  0  0  0
    3.3077    2.6024    0.2496 H   0  0  0  0  0  0  0  0  0  0  0  0
    1.6223   -0.9307    1.2391 H   0  0  0  0  0  0  0  0  0  0  0  0
    1.3115   -1.0354   -1.1848 H   0  0  0  0  0  0  0  0  0  0  0  0
    1.8826    0.6099   -1.3291 H   0  0  0  0  0  0  0  0  0  0  0  0
   -0.3875    1.4198   -1.0787 H   0  0  0  0  0  0  0  0  0  0  0  0
   -1.1474   -1.4141   -0.7759 H   0  0  0  0  0  0  0  0  0  0  0  0
   -4.9261   -0.3533   -3.0992 H   0  0  0  0  0  0  0  0  0  0  0  0
   -5.5663   -3.9987   -4.1395 H   0  0  0  0  0  0  0  0  0  0  0  0
   -6.3018   -2.4262   -4.3409 H   0  0  0  0  0  0  0  0  0  0  0  0
   -6.5243   -4.1646   -1.9186 H   0  0  0  0  0  0  0  0  0  0  0  0
   -7.7577   -3.9456   -3.1372 H   0  0  0  0  0  0  0  0  0  0  0  0
   -8.3904   -2.4217   -1.8207 H   0  0  0  0  0  0  0  0  0  0  0  0
   -0.6480   -0.1208    1.4894 H   0  0  0  0  0  0  0  0  0  0  0  0
   -0.0769    1.5246    1.3451 H   0  0  0  0  0  0  0  0  0  0  0  0
  1  2  1  0  0  0  0
  1 26  1  0  0  0  0
  1 27  1  0  0  0  0
  1 28  1  0  0  0  0
  2  3  1  0  0  0  0
  2 15  1  0  0  0  0
  2 29  1  1  0  0  0
  3  4  1  0  0  0  0
  3 15  1  0  0  0  0
  3 30  1  6  0  0  0
  4 19  1  0  0  0  0
  4 16  2  0  0  0  0
  5 19  1  0  0  0  0
  5 31  1  0  0  0  0
  5 32  1  0  0  0  0
  5 33  1  0  0  0  0
  6 19  1  0  0  0  0
  6  7  1  0  0  0  0
  6 14  1  0  0  0  0
  6 34  1  1  0  0  0
  7  8  1  0  0  0  0
  7 35  1  0  0  0  0
  7 36  1  0  0  0  0
  8 20  1  0  0  0  0
  8 14  1  0  0  0  0
  8 37  1  6  0  0  0
  9 20  1  0  0  0  0
  9 10  1  0  0  0  0
  9 17  2  0  0  0  0
 10 23  1  0  0  0  0
 10 11  2  0  0  0  0
 11 21  1  0  0  0  0
 11 39  1  0  0  0  0
 12 21  1  0  0  0  0
 12 13  1  0  0  0  0
 12 40  1  0  0  0  0
 12 41  1  0  0  0  0
 13 18  1  0  0  0  0
 13 42  1  0  0  0  0
 13 43  1  0  0  0  0
 14 45  1  0  0  0  0
 14 46  1  0  0  0  0
 15 24  1  0  0  0  0
 15 25  1  0  0  0  0
 18 44  1  0  0  0  0
 20 38  1  0  0  0  0
 21 22  1  0  0  0  0
 22 23  2  0  0  0  0
M  END
>  <score>
0.41071426868438721

$$$$
Z3512341796
 OpenBabel08202115463D

 51 53  0  0  0  0  0  0  0  0999 V2000
    7.1613    1.7338    1.7591 N   0  0  0  0  0  0  0  0  0  0  0  0
    0.3268    1.0100    0.9985 N   0  0  0  0  0  0  0  0  0  0  0  0
   -5.5177   -2.0546   -2.1305 N   0  0  0  0  0  0  0  0  0  0  0  0
    5.6895    1.6062    1.7883 C   0  0  1  0  0  0  0  0  0  0  0  0
    5.2893    0.3378    1.0140 C   0  0  0  0  0  0  0  0  0  0  0  0
    3.9141    0.4389    0.3286 C   0  0  0  0  0  0  0  0  0  0  0  0
    2.6920    0.5411    1.2377 C   0  0  2  0  0  0  0  0  0  0  0  0
    1.5168    0.9997    0.3773 C   0  0  0  0  0  0  0  0  0  0  0  0
   -0.8587    1.6028    0.3975 C   0  0  0  0  0  0  0  0  0  0  0  0
   -1.7335    0.5841   -0.2895 C   0  0  0  0  0  0  0  0  0  0  0  0
   -3.0487    0.8892   -0.5853 C   0  0  0  0  0  0  0  0  0  0  0  0
   -3.8506   -0.0456   -1.2215 C   0  0  0  0  0  0  0  0  0  0  0  0
   -3.3366   -1.2845   -1.5551 C   0  0  0  0  0  0  0  0  0  0  0  0
   -4.2041   -2.2779   -2.2296 C   0  0  0  0  0  0  0  0  0  0  0  0
   -6.5068   -2.8698   -2.8432 C   0  0  0  0  0  0  0  0  0  0  0  0
   -6.9106   -2.5876   -4.2596 C   0  0  0  0  0  0  0  0  0  0  0  0
   -7.8827   -2.3640   -3.1437 C   0  0  0  0  0  0  0  0  0  0  0  0
   -2.0176   -1.5902   -1.2583 C   0  0  0  0  0  0  0  0  0  0  0  0
   -1.2179   -0.6583   -0.6240 C   0  0  0  0  0  0  0  0  0  0  0  0
    2.7852    1.4828    2.4207 C   0  0  0  0  0  0  0  0  0  0  0  0
    3.8227    1.0746    3.4734 C   0  0  0  0  0  0  0  0  0  0  0  0
    5.2315    1.5743    3.2404 C   0  0  0  0  0  0  0  0  0  0  0  0
    1.6912    1.3961   -0.7742 O   0  0  0  0  0  0  0  0  0  0  0  0
   -3.7818   -3.2449   -2.8420 O   0  0  0  0  0  0  0  0  0  0  0  0
    6.0834    0.7625    3.9306 F   0  0  0  0  0  0  0  0  0  0  0  0
    5.3116    2.8295    3.7276 F   0  0  0  0  0  0  0  0  0  0  0  0
    7.4186    2.4010    1.0891 H   0  0  0  0  0  0  0  0  0  0  0  0
    7.5595    0.8686    1.5279 H   0  0  0  0  0  0  0  0  0  0  0  0
    5.2479    2.4544    1.3083 H   0  0  0  0  0  0  0  0  0  0  0  0
    6.0283    0.1537    0.2624 H   0  0  0  0  0  0  0  0  0  0  0  0
    5.2651   -0.4831    1.6999 H   0  0  0  0  0  0  0  0  0  0  0  0
    3.7918   -0.4330   -0.2795 H   0  0  0  0  0  0  0  0  0  0  0  0
    3.9270    1.3093   -0.2935 H   0  0  0  0  0  0  0  0  0  0  0  0
    2.4934   -0.4380    1.6209 H   0  0  0  0  0  0  0  0  0  0  0  0
    0.2538    0.6043    1.8875 H   0  0  0  0  0  0  0  0  0  0  0  0
   -0.5495    2.3304   -0.3236 H   0  0  0  0  0  0  0  0  0  0  0  0
   -1.4291    2.0814    1.1659 H   0  0  0  0  0  0  0  0  0  0  0  0
   -3.4367    1.8199   -0.3307 H   0  0  0  0  0  0  0  0  0  0  0  0
   -4.8391    0.1853   -1.4477 H   0  0  0  0  0  0  0  0  0  0  0  0
   -5.8311   -1.3206   -1.5618 H   0  0  0  0  0  0  0  0  0  0  0  0
   -6.4726   -3.9122   -2.6046 H   0  0  0  0  0  0  0  0  0  0  0  0
   -7.0591   -3.3959   -4.9447 H   0  0  0  0  0  0  0  0  0  0  0  0
   -6.4909   -1.7516   -4.7791 H   0  0  0  0  0  0  0  0  0  0  0  0
   -8.1583   -1.3680   -2.8666 H   0  0  0  0  0  0  0  0  0  0  0  0
   -8.7265   -3.0123   -3.0322 H   0  0  0  0  0  0  0  0  0  0  0  0
   -1.6296   -2.5209   -1.5129 H   0  0  0  0  0  0  0  0  0  0  0  0
   -0.2294   -0.8892   -0.3978 H   0  0  0  0  0  0  0  0  0  0  0  0
    1.8262    1.5224    2.8935 H   0  0  0  0  0  0  0  0  0  0  0  0
    3.0436    2.4548    2.0553 H   0  0  0  0  0  0  0  0  0  0  0  0
    3.8550    0.0055    3.5044 H   0  0  0  0  0  0  0  0  0  0  0  0
    3.4942    1.4497    4.4201 H   0  0  0  0  0  0  0  0  0  0  0  0
  1 27  1  0  0  0  0
  1 28  1  0  0  0  0
  2 35  1  0  0  0  0
  3 40  1  0  0  0  0
  4  1  1  0  0  0  0
  4  5  1  0  0  0  0
  4 22  1  0  0  0  0
  4 29  1  6  0  0  0
  5  6  1  0  0  0  0
  5 30  1  0  0  0  0
  5 31  1  0  0  0  0
  6  7  1  0  0  0  0
  6 32  1  0  0  0  0
  6 33  1  0  0  0  0
  7  8  1  0  0  0  0
  7 20  1  0  0  0  0
  7 34  1  1  0  0  0
  8  2  1  0  0  0  0
  8 23  2  0  0  0  0
  9  2  1  0  0  0  0
  9 10  1  0  0  0  0
  9 36  1  0  0  0  0
  9 37  1  0  0  0  0
 10 19  1  0  0  0  0
 10 11  2  0  0  0  0
 11 12  1  0  0  0  0
 11 38  1  0  0  0  0
 12 39  1  0  0  0  0
 12 13  2  0  0  0  0
 13 14  1  0  0  0  0
 13 18  1  0  0  0  0
 14  3  1  0  0  0  0
 14 24  2  0  0  0  0
 15  3  1  0  0  0  0
 15 16  1  0  0  0  0
 15 17  1  0  0  0  0
 15 41  1  0  0  0  0
 16 17  1  0  0  0  0
 16 42  1  0  0  0  0
 16 43  1  0  0  0  0
 17 44  1  0  0  0  0
 17 45  1  0  0  0  0
 18 46  1  0  0  0  0
 18 19  2  0  0  0  0
 19 47  1  0  0  0  0
 20 21  1  0  0  0  0
 20 48  1  0  0  0  0
 20 49  1  0  0  0  0
 21 22  1  0  0  0  0
 21 50  1  0  0  0  0
 21 51  1  0  0  0  0
 22 25  1  0  0  0  0
 22 26  1  0  0  0  0
M  END
>  <score>
0.41099554300308228

$$$$
Z4050741782
 OpenBabel08202115463D

 48 50  0  0  0  0  0  0  0  0999 V2000
   -6.9083   -4.1823   -3.6294 C   0  0  0  0  0  0  0  0  0  0  0  0
   -5.6055   -3.5290   -3.3194 C   0  0  0  0  0  0  0  0  0  0  0  0
   -4.3102   -2.0592   -2.4900 C   0  0  0  0  0  0  0  0  0  0  0  0
   -3.9465   -0.8184   -1.7220 C   0  0  0  0  0  0  0  0  0  0  0  0
   -2.4582   -0.5251   -1.6246 C   0  0  0  0  0  0  0  0  0  0  0  0
   -2.1044    0.8266   -1.0882 C   0  0  0  0  0  0  0  0  0  0  0  0
    0.3143    0.1731   -1.2091 C   0  0  0  0  0  0  0  0  0  0  0  0
    1.1674   -0.1031    0.0207 C   0  0  0  0  0  0  0  0  0  0  0  0
    1.6789    1.1891    0.6447 C   0  0  0  0  0  0  0  0  0  0  0  0
    3.1711    2.0077    2.4344 C   0  0  0  0  0  0  0  0  0  0  0  0
    4.2842    0.9893    2.7612 C   0  0  0  0  0  0  0  0  0  0  0  0
    4.2670    0.4501    4.1932 C   0  0  0  0  0  0  0  0  0  0  0  0
    5.7064    1.4450    2.4019 C   0  0  0  0  0  0  0  0  0  0  0  0
    3.6053    0.0779    1.7116 C   0  0  0  0  0  0  0  0  0  0  0  0
    0.5234    2.1284    0.9359 C   0  0  0  0  0  0  0  0  0  0  0  0
   -0.3026    2.3858   -0.3115 C   0  0  0  0  0  0  0  0  0  0  0  0
   -4.4089   -3.8802   -3.6423 N   0  0  0  0  0  0  0  0  0  0  0  0
   -3.5544   -2.9054   -3.0997 N   0  0  0  0  0  0  0  0  0  0  0  0
   -0.7621    1.1153   -0.8794 N   0  0  0  0  0  0  0  0  0  0  0  0
    2.3738    0.8794    1.8922 N   0  0  0  0  0  0  0  0  0  0  0  0
   -2.9715    1.6488   -0.8423 O   0  0  0  0  0  0  0  0  0  0  0  0
   -5.6347   -2.3814   -2.5841 O   0  0  0  0  0  0  0  0  0  0  0  0
   -7.5029   -3.5263   -4.2301 H   0  0  0  0  0  0  0  0  0  0  0  0
   -7.4252   -4.3970   -2.7174 H   0  0  0  0  0  0  0  0  0  0  0  0
   -6.7324   -5.0929   -4.1631 H   0  0  0  0  0  0  0  0  0  0  0  0
   -4.3283   -0.9218   -0.7277 H   0  0  0  0  0  0  0  0  0  0  0  0
   -4.4166    0.0155   -2.2001 H   0  0  0  0  0  0  0  0  0  0  0  0
   -2.0401   -0.6107   -2.6058 H   0  0  0  0  0  0  0  0  0  0  0  0
   -2.0183   -1.2602   -0.9835 H   0  0  0  0  0  0  0  0  0  0  0  0
    0.9284    0.5936   -1.9778 H   0  0  0  0  0  0  0  0  0  0  0  0
   -0.1134   -0.7445   -1.5556 H   0  0  0  0  0  0  0  0  0  0  0  0
    2.0037   -0.7066   -0.2645 H   0  0  0  0  0  0  0  0  0  0  0  0
    0.5775   -0.6283    0.7425 H   0  0  0  0  0  0  0  0  0  0  0  0
    2.3569    1.6639   -0.0334 H   0  0  0  0  0  0  0  0  0  0  0  0
    2.7408    2.4857    3.2896 H   0  0  0  0  0  0  0  0  0  0  0  0
    3.4437    2.7476    1.7111 H   0  0  0  0  0  0  0  0  0  0  0  0
    3.2825    0.1072    4.4339 H   0  0  0  0  0  0  0  0  0  0  0  0
    4.5487    1.2289    4.8707 H   0  0  0  0  0  0  0  0  0  0  0  0
    4.9578   -0.3628    4.2763 H   0  0  0  0  0  0  0  0  0  0  0  0
    6.3482    0.5916    2.3330 H   0  0  0  0  0  0  0  0  0  0  0  0
    6.0715    2.1051    3.1607 H   0  0  0  0  0  0  0  0  0  0  0  0
    5.6903    1.9556    1.4618 H   0  0  0  0  0  0  0  0  0  0  0  0
    3.5155   -0.9473    2.0045 H   0  0  0  0  0  0  0  0  0  0  0  0
    4.0322    0.1334    0.7320 H   0  0  0  0  0  0  0  0  0  0  0  0
   -0.1027    1.6896    1.6845 H   0  0  0  0  0  0  0  0  0  0  0  0
    0.9117    3.0584    1.2953 H   0  0  0  0  0  0  0  0  0  0  0  0
   -1.1502    2.9873   -0.0572 H   0  0  0  0  0  0  0  0  0  0  0  0
    0.2968    2.9003   -1.0333 H   0  0  0  0  0  0  0  0  0  0  0  0
  1  2  1  0  0  0  0
  1 23  1  0  0  0  0
  1 24  1  0  0  0  0
  1 25  1  0  0  0  0
  2 22  1  0  0  0  0
  2 17  2  0  0  0  0
  3  4  1  0  0  0  0
  3 22  1  0  0  0  0
  3 18  2  0  0  0  0
  4  5  1  0  0  0  0
  4 26  1  0  0  0  0
  4 27  1  0  0  0  0
  5  6  1  0  0  0  0
  5 28  1  0  0  0  0
  5 29  1  0  0  0  0
  6 19  1  0  0  0  0
  6 21  2  0  0  0  0
  7 19  1  0  0  0  0
  7  8  1  0  0  0  0
  7 30  1  0  0  0  0
  7 31  1  0  0  0  0
  8  9  1  0  0  0  0
  8 32  1  0  0  0  0
  8 33  1  0  0  0  0
  9 20  1  0  0  0  0
  9 15  1  0  0  0  0
  9 34  1  0  0  0  0
 10 20  1  0  0  0  0
 10 11  1  0  0  0  0
 10 35  1  0  0  0  0
 10 36  1  0  0  0  0
 11 12  1  0  0  0  0
 11 13  1  0  0  0  0
 11 14  1  0  0  0  0
 12 37  1  0  0  0  0
 12 38  1  0  0  0  0
 12 39  1  0  0  0  0
 13 40  1  0  0  0  0
 13 41  1  0  0  0  0
 13 42  1  0  0  0  0
 14 20  1  0  0  0  0
 14 43  1  0  0  0  0
 14 44  1  0  0  0  0
 15 16  1  0  0  0  0
 15 45  1  0  0  0  0
 15 46  1  0  0  0  0
 16 19  1  0  0  0  0
 16 47  1  0  0  0  0
 16 48  1  0  0  0  0
 17 18  1  0  0  0  0
M  END
>  <score>
0.41169077157974243

$$$$
PV-004098890356
 OpenBabel08202115463D

 52 55  0  0  0  0  0  0  0  0999 V2000
    5.8658    1.5601    0.7525 C   0  0  0  0  0  0  0  0  0  0  0  0
    4.5130    1.4603    1.4822 C   0  0  1  0  0  0  0  0  0  0  0  0
    3.5706    0.4668    0.8217 C   0  0  0  0  0  0  0  0  0  0  0  0
    1.0111    0.1797    0.3996 C   0  0  0  0  0  0  0  0  0  0  0  0
    0.4634    1.6047    0.4061 C   0  0  1  0  0  0  0  0  0  0  0  0
   -1.0300    1.7837    0.7176 C   0  0  0  0  0  0  0  0  0  0  0  0
   -1.5505    1.5921   -0.7144 C   0  0  1  0  0  0  0  0  0  0  0  0
   -2.5156   -0.5306   -1.4719 C   0  0  0  0  0  0  0  0  0  0  0  0
   -2.2332   -1.9301   -1.9467 C   0  0  0  0  0  0  0  0  0  0  0  0
   -3.4034   -2.8564   -2.1131 C   0  0  0  0  0  0  0  0  0  0  0  0
   -5.4827   -3.0856   -3.2045 C   0  0  0  0  0  0  0  0  0  0  0  0
   -6.7964   -2.5068   -3.6382 C   0  0  0  0  0  0  0  0  0  0  0  0
   -6.6910   -3.2321   -2.3336 C   0  0  0  0  0  0  0  0  0  0  0  0
   -0.5895    2.4931   -1.4840 C   0  0  0  0  0  0  0  0  0  0  0  0
    1.4459    1.7909    1.5596 C   0  0  0  0  0  0  0  0  0  0  0  0
    4.7275    1.0666    2.8969 C   0  0  0  0  0  0  0  0  0  0  0  0
    4.3879    1.5941    4.0847 C   0  0  0  0  0  0  0  0  0  0  0  0
    4.8965    0.7114    5.0757 C   0  0  0  0  0  0  0  0  0  0  0  0
    5.5171   -0.2838    4.4236 C   0  0  0  0  0  0  0  0  0  0  0  0
    3.9991   -0.5361    0.2457 O   0  0  0  0  0  0  0  0  0  0  0  0
   -3.6568   -0.1057   -1.3967 O   0  0  0  0  0  0  0  0  0  0  0  0
   -4.4555   -2.1816   -2.7902 O   0  0  0  0  0  0  0  0  0  0  0  0
    0.6320    2.4020   -0.7643 O   0  0  0  0  0  0  0  0  0  0  0  0
    5.4292   -0.0969    3.0673 O   0  0  0  0  0  0  0  0  0  0  0  0
    2.2627    0.7564    0.9098 N   0  0  0  0  0  0  0  0  0  0  0  0
   -1.4449    0.1985   -1.1448 N   0  0  0  0  0  0  0  0  0  0  0  0
    6.4782    2.2934    1.2343 H   0  0  0  0  0  0  0  0  0  0  0  0
    5.7014    1.8461   -0.2654 H   0  0  0  0  0  0  0  0  0  0  0  0
    6.3574    0.6102    0.7818 H   0  0  0  0  0  0  0  0  0  0  0  0
    4.0525    2.4260    1.4659 H   0  0  0  0  0  0  0  0  0  0  0  0
    0.5199   -0.4943    1.0700 H   0  0  0  0  0  0  0  0  0  0  0  0
    1.0845   -0.2698   -0.5686 H   0  0  0  0  0  0  0  0  0  0  0  0
   -1.3993    1.0373    1.3894 H   0  0  0  0  0  0  0  0  0  0  0  0
   -1.2524    2.7555    1.1062 H   0  0  0  0  0  0  0  0  0  0  0  0
   -2.5641    1.9206   -0.8132 H   0  0  0  0  0  0  0  0  0  0  0  0
   -0.5578   -0.2150   -1.1951 H   0  0  0  0  0  0  0  0  0  0  0  0
   -1.5670   -2.3796   -1.2403 H   0  0  0  0  0  0  0  0  0  0  0  0
   -1.7476   -1.8538   -2.8971 H   0  0  0  0  0  0  0  0  0  0  0  0
   -3.7458   -3.1733   -1.1502 H   0  0  0  0  0  0  0  0  0  0  0  0
   -3.1029   -3.7099   -2.6841 H   0  0  0  0  0  0  0  0  0  0  0  0
   -5.1727   -3.9698   -3.7212 H   0  0  0  0  0  0  0  0  0  0  0  0
   -7.3319   -2.9470   -4.4533 H   0  0  0  0  0  0  0  0  0  0  0  0
   -6.9356   -1.4460   -3.6508 H   0  0  0  0  0  0  0  0  0  0  0  0
   -6.7557   -2.6895   -1.4137 H   0  0  0  0  0  0  0  0  0  0  0  0
   -7.1521   -4.1905   -2.2162 H   0  0  0  0  0  0  0  0  0  0  0  0
   -0.9460    3.5018   -1.4987 H   0  0  0  0  0  0  0  0  0  0  0  0
   -0.4646    2.1437   -2.4876 H   0  0  0  0  0  0  0  0  0  0  0  0
    1.9016    2.7577    1.6109 H   0  0  0  0  0  0  0  0  0  0  0  0
    1.0647    1.5241    2.5231 H   0  0  0  0  0  0  0  0  0  0  0  0
    3.8579    2.4741    4.2470 H   0  0  0  0  0  0  0  0  0  0  0  0
    4.8055    0.8164    6.1064 H   0  0  0  0  0  0  0  0  0  0  0  0
    5.9972   -1.0844    4.8820 H   0  0  0  0  0  0  0  0  0  0  0  0
  1  2  1  0  0  0  0
  1 27  1  0  0  0  0
  1 28  1  0  0  0  0
  1 29  1  0  0  0  0
  2  3  1  0  0  0  0
  2 16  1  0  0  0  0
  2 30  1  6  0  0  0
  3 25  1  0  0  0  0
  3 20  2  0  0  0  0
  4 25  1  0  0  0  0
  4  5  1  0  0  0  0
  4 31  1  0  0  0  0
  4 32  1  0  0  0  0
  5  6  1  0  0  0  0
  5 23  1  6  0  0  0
  5 15  1  0  0  0  0
  6  7  1  0  0  0  0
  6 33  1  0  0  0  0
  6 34  1  0  0  0  0
  7 26  1  0  0  0  0
  7 14  1  0  0  0  0
  7 35  1  6  0  0  0
  8 26  1  0  0  0  0
  8  9  1  0  0  0  0
  8 21  2  0  0  0  0
  9 10  1  0  0  0  0
  9 37  1  0  0  0  0
  9 38  1  0  0  0  0
 10 22  1  0  0  0  0
 10 39  1  0  0  0  0
 10 40  1  0  0  0  0
 11 22  1  0  0  0  0
 11 12  1  0  0  0  0
 11 13  1  0  0  0  0
 11 41  1  0  0  0  0
 12 13  1  0  0  0  0
 12 42  1  0  0  0  0
 12 43  1  0  0  0  0
 13 44  1  0  0  0  0
 13 45  1  0  0  0  0
 14 23  1  0  0  0  0
 14 46  1  0  0  0  0
 14 47  1  0  0  0  0
 15 25  1  0  0  0  0
 15 48  1  0  0  0  0
 15 49  1  0  0  0  0
 16 24  1  0  0  0  0
 16 17  2  0  0  0  0
 17 18  1  0  0  0  0
 17 50  1  0  0  0  0
 18 51  1  0  0  0  0
 18 19  2  0  0  0  0
 19 24  1  0  0  0  0
 19 52  1  0  0  0  0
 26 36  1  0  0  0  0
M  END
>  <score>
0.41205447912216187

$$$$
PV-003797944775
 OpenBabel08202115463D

 48 49  0  0  0  0  0  0  0  0999 V2000
    0.4317    2.5641    0.3306 C   0  0  0  0  0  0  0  0  0  0  0  0
    0.6865    1.0845    0.5674 C   0  0  1  0  0  0  0  0  0  0  0  0
    0.2682    0.2311   -0.6043 C   0  0  0  0  0  0  0  0  0  0  0  0
   -1.7064   -0.5367   -1.8256 C   0  0  0  0  0  0  0  0  0  0  0  0
   -3.2076   -0.4866   -1.9258 C   0  0  0  0  0  0  0  0  0  0  0  0
   -3.7622   -1.4486   -2.9370 C   0  0  0  0  0  0  0  0  0  0  0  0
   -5.8507   -2.2817   -3.7377 C   0  0  0  0  0  0  0  0  0  0  0  0
   -7.3691   -2.4089   -3.5330 C   0  0  0  0  0  0  0  0  0  0  0  0
   -5.8185   -3.7927   -3.4526 C   0  0  0  0  0  0  0  0  0  0  0  0
    2.4733    0.8654    2.2225 C   0  0  0  0  0  0  0  0  0  0  0  0
    3.9479    0.6718    2.4589 C   0  0  1  0  0  0  0  0  0  0  0  0
    4.7220    1.7970    1.7780 C   0  0  0  0  0  0  0  0  0  0  0  0
    6.4026    1.8146    3.4732 C   0  0  0  0  0  0  0  0  0  0  0  0
    5.7152    0.6844    4.2421 C   0  0  0  0  0  0  0  0  0  0  0  0
    4.2267    0.6866    3.9604 C   0  0  0  0  0  0  0  0  0  0  0  0
   -1.1632    0.2188   -0.8669 N   0  0  0  0  0  0  0  0  0  0  0  0
    2.0676    0.8311    0.9501 N   0  0  0  0  0  0  0  0  0  0  0  0
   -1.0398   -1.2339   -2.5858 O   0  0  0  0  0  0  0  0  0  0  0  0
   -5.1746   -1.4681   -2.7780 O   0  0  0  0  0  0  0  0  0  0  0  0
   -7.2472   -3.8232   -3.2219 O   0  0  0  0  0  0  0  0  0  0  0  0
    1.7094    1.1217    3.1523 O   0  0  0  0  0  0  0  0  0  0  0  0
    6.1096    1.6974    2.0721 O   0  0  0  0  0  0  0  0  0  0  0  0
    3.6683   -0.4131    4.5245 F   0  0  0  0  0  0  0  0  0  0  0  0
    3.6695    1.8153    4.5077 F   0  0  0  0  0  0  0  0  0  0  0  0
    0.6997    3.1173    1.2064 H   0  0  0  0  0  0  0  0  0  0  0  0
   -0.6053    2.7172    0.1157 H   0  0  0  0  0  0  0  0  0  0  0  0
    1.0212    2.8993   -0.4970 H   0  0  0  0  0  0  0  0  0  0  0  0
    0.0718    0.7947    1.3938 H   0  0  0  0  0  0  0  0  0  0  0  0
    0.5804   -0.7742   -0.4126 H   0  0  0  0  0  0  0  0  0  0  0  0
    0.7642    0.5987   -1.4782 H   0  0  0  0  0  0  0  0  0  0  0  0
   -1.7490    0.7844   -0.3215 H   0  0  0  0  0  0  0  0  0  0  0  0
   -3.4974    0.5050   -2.2044 H   0  0  0  0  0  0  0  0  0  0  0  0
   -3.6210   -0.7236   -0.9678 H   0  0  0  0  0  0  0  0  0  0  0  0
   -3.3621   -2.4266   -2.7685 H   0  0  0  0  0  0  0  0  0  0  0  0
   -3.5103   -1.1251   -3.9254 H   0  0  0  0  0  0  0  0  0  0  0  0
   -5.5467   -1.9983   -4.7237 H   0  0  0  0  0  0  0  0  0  0  0  0
   -7.9410   -2.2094   -4.4150 H   0  0  0  0  0  0  0  0  0  0  0  0
   -7.7454   -1.8203   -2.7226 H   0  0  0  0  0  0  0  0  0  0  0  0
   -5.5051   -4.3817   -4.2891 H   0  0  0  0  0  0  0  0  0  0  0  0
   -5.2382   -4.0559   -2.5929 H   0  0  0  0  0  0  0  0  0  0  0  0
    2.7227    0.6283    0.2500 H   0  0  0  0  0  0  0  0  0  0  0  0
    4.2548   -0.2682    2.0501 H   0  0  0  0  0  0  0  0  0  0  0  0
    4.5810    1.7304    0.7194 H   0  0  0  0  0  0  0  0  0  0  0  0
    4.3548    2.7388    2.1287 H   0  0  0  0  0  0  0  0  0  0  0  0
    7.4605    1.7527    3.6211 H   0  0  0  0  0  0  0  0  0  0  0  0
    6.0462    2.7571    3.8330 H   0  0  0  0  0  0  0  0  0  0  0  0
    6.1306   -0.2534    3.9373 H   0  0  0  0  0  0  0  0  0  0  0  0
    5.8761    0.8223    5.2909 H   0  0  0  0  0  0  0  0  0  0  0  0
  1  2  1  0  0  0  0
  1 25  1  0  0  0  0
  1 26  1  0  0  0  0
  1 27  1  0  0  0  0
  2  3  1  0  0  0  0
  2 17  1  0  0  0  0
  2 28  1  1  0  0  0
  3 16  1  0  0  0  0
  3 29  1  0  0  0  0
  3 30  1  0  0  0  0
  4 16  1  0  0  0  0
  4  5  1  0  0  0  0
  4 18  2  0  0  0  0
  5  6  1  0  0  0  0
  5 32  1  0  0  0  0
  5 33  1  0  0  0  0
  6 19  1  0  0  0  0
  6 34  1  0  0  0  0
  6 35  1  0  0  0  0
  7 19  1  0  0  0  0
  7  8  1  0  0  0  0
  7  9  1  0  0  0  0
  7 36  1  0  0  0  0
  8 20  1  0  0  0  0
  8 37  1  0  0  0  0
  8 38  1  0  0  0  0
  9 20  1  0  0  0  0
  9 39  1  0  0  0  0
  9 40  1  0  0  0  0
 10 17  1  0  0  0  0
 10 11  1  0  0  0  0
 10 21  2  0  0  0  0
 11 12  1  0  0  0  0
 11 15  1  0  0  0  0
 11 42  1  6  0  0  0
 12 22  1  0  0  0  0
 12 43  1  0  0  0  0
 12 44  1  0  0  0  0
 13 22  1  0  0  0  0
 13 14  1  0  0  0  0
 13 45  1  0  0  0  0
 13 46  1  0  0  0  0
 14 15  1  0  0  0  0
 14 47  1  0  0  0  0
 14 48  1  0  0  0  0
 15 23  1  0  0  0  0
 15 24  1  0  0  0  0
 16 31  1  0  0  0  0
 17 41  1  0  0  0  0
M  END
>  <score>
0.41216427087783813

$$$$
PV-003033452391
 OpenBabel08202115463D

 56 56  0  0  0  0  0  0  0  0999 V2000
   -8.0564   -5.1153   -4.0114 C   0  0  0  0  0  0  0  0  0  0  0  0
   -6.8334   -4.2114   -4.0330 C   0  0  0  0  0  0  0  0  0  0  0  0
   -6.7892   -3.2296   -2.8735 C   0  0  0  0  0  0  0  0  0  0  0  0
   -5.5020   -2.4298   -2.8211 C   0  0  0  0  0  0  0  0  0  0  0  0
   -3.2288   -2.3018   -1.9875 C   0  0  0  0  0  0  0  0  0  0  0  0
   -3.1246   -1.1619   -1.0048 C   0  0  0  0  0  0  0  0  0  0  0  0
   -1.7117   -0.5372   -0.9382 C   0  0  0  0  0  0  0  0  0  0  0  0
   -1.5715    0.6539   -0.0183 C   0  0  0  0  0  0  0  0  0  0  0  0
    0.8489    1.2335    0.4831 C   0  0  0  0  0  0  0  0  0  0  0  0
    1.7438    2.0308   -0.1860 C   0  0  0  0  0  0  0  0  0  0  0  0
    3.1925    2.2910    0.1083 C   0  0  0  0  0  0  0  0  0  0  0  0
    3.5839    1.9371    1.5370 C   0  0  0  0  0  0  0  0  0  0  0  0
    5.4983    3.4140    1.2543 C   0  0  0  0  0  0  0  0  0  0  0  0
    5.3537    1.9325    3.1910 C   0  0  0  0  0  0  0  0  0  0  0  0
    6.8631    1.9461    3.3920 C   0  0  0  0  0  0  0  0  0  0  0  0
    4.7533    0.6014    3.6555 C   0  0  0  0  0  0  0  0  0  0  0  0
    4.7100    3.0864    3.9425 C   0  0  0  0  0  0  0  0  0  0  0  0
   -5.3561   -1.4108   -3.4939 O   0  0  0  0  0  0  0  0  0  0  0  0
   -4.5522   -2.9069   -2.0023 N   0  0  0  0  0  0  0  0  0  0  0  0
   -0.3063    1.3534   -0.1987 N   0  0  0  0  0  0  0  0  0  0  0  0
    5.0290    2.1048    1.7223 N   0  0  0  0  0  0  0  0  0  0  0  0
    1.0864    2.6007   -1.2388 N   0  0  0  0  0  0  0  0  0  0  0  0
   -0.1564    2.1910   -1.2456 N   0  0  0  0  0  0  0  0  0  0  0  0
   -1.3613   -0.1540   -2.1742 F   0  0  0  0  0  0  0  0  0  0  0  0
   -0.8509   -1.4814   -0.5322 F   0  0  0  0  0  0  0  0  0  0  0  0
   -8.1086   -5.6233   -3.0712 H   0  0  0  0  0  0  0  0  0  0  0  0
   -7.9827   -5.8337   -4.8010 H   0  0  0  0  0  0  0  0  0  0  0  0
   -8.9384   -4.5249   -4.1469 H   0  0  0  0  0  0  0  0  0  0  0  0
   -6.8380   -3.6562   -4.9477 H   0  0  0  0  0  0  0  0  0  0  0  0
   -5.9575   -4.8247   -3.9919 H   0  0  0  0  0  0  0  0  0  0  0  0
   -6.8872   -3.7774   -1.9595 H   0  0  0  0  0  0  0  0  0  0  0  0
   -7.6091   -2.5493   -2.9718 H   0  0  0  0  0  0  0  0  0  0  0  0
   -4.7502   -3.6644   -1.4128 H   0  0  0  0  0  0  0  0  0  0  0  0
   -3.0104   -1.9310   -2.9672 H   0  0  0  0  0  0  0  0  0  0  0  0
   -2.5124   -3.0506   -1.7212 H   0  0  0  0  0  0  0  0  0  0  0  0
   -3.3799   -1.5280   -0.0323 H   0  0  0  0  0  0  0  0  0  0  0  0
   -3.8189   -0.4006   -1.2935 H   0  0  0  0  0  0  0  0  0  0  0  0
   -1.6340    0.3143    0.9944 H   0  0  0  0  0  0  0  0  0  0  0  0
   -2.3717    1.3361   -0.2163 H   0  0  0  0  0  0  0  0  0  0  0  0
    1.0249    0.6605    1.3329 H   0  0  0  0  0  0  0  0  0  0  0  0
    3.3913    3.3301   -0.0518 H   0  0  0  0  0  0  0  0  0  0  0  0
    3.7866    1.7061   -0.5624 H   0  0  0  0  0  0  0  0  0  0  0  0
    3.3181    0.9196    1.7345 H   0  0  0  0  0  0  0  0  0  0  0  0
    3.0636    2.5803    2.2156 H   0  0  0  0  0  0  0  0  0  0  0  0
    4.9384    4.1876    1.7369 H   0  0  0  0  0  0  0  0  0  0  0  0
    5.3625    3.4835    0.1952 H   0  0  0  0  0  0  0  0  0  0  0  0
    6.5362    3.5254    1.4893 H   0  0  0  0  0  0  0  0  0  0  0  0
    7.2534    2.8995    3.1028 H   0  0  0  0  0  0  0  0  0  0  0  0
    7.3095    1.1812    2.7916 H   0  0  0  0  0  0  0  0  0  0  0  0
    7.0870    1.7671    4.4229 H   0  0  0  0  0  0  0  0  0  0  0  0
    3.7101    0.7518    3.4714 H   0  0  0  0  0  0  0  0  0  0  0  0
    4.9441    0.4305    4.6943 H   0  0  0  0  0  0  0  0  0  0  0  0
    5.1349   -0.2179    3.0827 H   0  0  0  0  0  0  0  0  0  0  0  0
    5.1736    4.0055    3.6507 H   0  0  0  0  0  0  0  0  0  0  0  0
    4.8373    2.9414    4.9950 H   0  0  0  0  0  0  0  0  0  0  0  0
    3.6661    3.1245    3.7109 H   0  0  0  0  0  0  0  0  0  0  0  0
  1  2  1  0  0  0  0
  1 26  1  0  0  0  0
  1 27  1  0  0  0  0
  1 28  1  0  0  0  0
  2  3  1  0  0  0  0
  2 29  1  0  0  0  0
  2 30  1  0  0  0  0
  3  4  1  0  0  0  0
  3 31  1  0  0  0  0
  3 32  1  0  0  0  0
  4 19  1  0  0  0  0
  4 18  2  0  0  0  0
  5 19  1  0  0  0  0
  5  6  1  0  0  0  0
  5 34  1  0  0  0  0
  5 35  1  0  0  0  0
  6  7  1  0  0  0  0
  6 36  1  0  0  0  0
  6 37  1  0  0  0  0
  7 24  1  0  0  0  0
  7 25  1  0  0  0  0
  7  8  1  0  0  0  0
  8 20  1  0  0  0  0
  8 38  1  0  0  0  0
  8 39  1  0  0  0  0
  9 20  1  0  0  0  0
  9 40  1  0  0  0  0
  9 10  2  0  0  0  0
 10 11  1  0  0  0  0
 10 22  1  0  0  0  0
 11 12  1  0  0  0  0
 11 41  1  0  0  0  0
 11 42  1  0  0  0  0
 12 21  1  0  0  0  0
 12 43  1  0  0  0  0
 12 44  1  0  0  0  0
 13 21  1  0  0  0  0
 13 45  1  0  0  0  0
 13 46  1  0  0  0  0
 13 47  1  0  0  0  0
 14 21  1  0  0  0  0
 14 15  1  0  0  0  0
 14 16  1  0  0  0  0
 14 17  1  0  0  0  0
 15 48  1  0  0  0  0
 15 49  1  0  0  0  0
 15 50  1  0  0  0  0
 16 51  1  0  0  0  0
 16 52  1  0  0  0  0
 16 53  1  0  0  0  0
 17 54  1  0  0  0  0
 17 55  1  0  0  0  0
 17 56  1  0  0  0  0
 19 33  1  0  0  0  0
 20 23  1  0  0  0  0
 22 23  2  0  0  0  0
M  END
>  <score>
0.41263830661773682

$$$$
PV-003026100161
 OpenBabel08202115463D

 50 52  0  0  0  0  0  0  0  0999 V2000
   -8.2805   -2.8279   -3.4719 C   0  0  0  0  0  0  0  0  0  0  0  0
   -6.0579   -3.3087   -4.1845 C   0  0  0  0  0  0  0  0  0  0  0  0
   -6.4178   -2.5594   -1.9175 C   0  0  0  0  0  0  0  0  0  0  0  0
   -5.1031   -1.9052   -1.7038 C   0  0  0  0  0  0  0  0  0  0  0  0
   -4.6973   -0.7061   -1.2507 C   0  0  0  0  0  0  0  0  0  0  0  0
   -3.2794   -0.7502   -1.3070 C   0  0  0  0  0  0  0  0  0  0  0  0
   -2.2685    0.2987   -0.9319 C   0  0  0  0  0  0  0  0  0  0  0  0
    0.1253    0.7639   -0.7492 C   0  0  0  0  0  0  0  0  0  0  0  0
    0.5575    0.5083    0.6765 C   0  0  0  0  0  0  0  0  0  0  0  0
    3.0813    0.5692    0.9423 C   0  0  0  0  0  0  0  0  0  0  0  0
    3.9192    1.5450    1.4221 C   0  0  0  0  0  0  0  0  0  0  0  0
    5.4179    1.4985    1.6528 C   0  0  1  0  0  0  0  0  0  0  0  0
    5.9901    2.9000    1.7514 C   0  0  0  0  0  0  0  0  0  0  0  0
    7.1093    2.7720    2.7797 C   0  0  0  0  0  0  0  0  0  0  0  0
    7.0827    1.3401    3.2570 C   0  0  0  0  0  0  0  0  0  0  0  0
    4.7716    1.3587    3.9833 C   0  0  0  0  0  0  0  0  0  0  0  0
   -6.8720   -2.4481   -3.3182 N   0  0  0  0  0  0  0  0  0  0  0  0
   -1.0016   -0.0661   -1.1481 N   0  0  0  0  0  0  0  0  0  0  0  0
    1.8576    1.1313    0.9314 N   0  0  0  0  0  0  0  0  0  0  0  0
    5.7242    0.8910    2.9487 N   0  0  0  0  0  0  0  0  0  0  0  0
    3.1619    2.6508    1.6844 N   0  0  0  0  0  0  0  0  0  0  0  0
    1.9122    2.3995    1.3882 N   0  0  0  0  0  0  0  0  0  0  0  0
   -2.8563   -1.9070   -1.7633 N   0  0  0  0  0  0  0  0  0  0  0  0
   -2.6097    1.3765   -0.4734 O   0  0  0  0  0  0  0  0  0  0  0  0
   -4.0222   -2.6575   -2.0289 O   0  0  0  0  0  0  0  0  0  0  0  0
   -8.9012   -2.0991   -2.9939 H   0  0  0  0  0  0  0  0  0  0  0  0
   -8.4428   -3.7848   -3.0214 H   0  0  0  0  0  0  0  0  0  0  0  0
   -8.5249   -2.8769   -4.5124 H   0  0  0  0  0  0  0  0  0  0  0  0
   -5.0280   -3.0322   -4.0965 H   0  0  0  0  0  0  0  0  0  0  0  0
   -6.3728   -3.1917   -5.2004 H   0  0  0  0  0  0  0  0  0  0  0  0
   -6.1794   -4.3297   -3.8883 H   0  0  0  0  0  0  0  0  0  0  0  0
   -6.3330   -3.5954   -1.6637 H   0  0  0  0  0  0  0  0  0  0  0  0
   -7.1420   -2.0941   -1.2820 H   0  0  0  0  0  0  0  0  0  0  0  0
   -5.2932    0.0830   -0.9287 H   0  0  0  0  0  0  0  0  0  0  0  0
   -0.8249   -0.9224   -1.5907 H   0  0  0  0  0  0  0  0  0  0  0  0
   -0.1560    1.7920   -0.8431 H   0  0  0  0  0  0  0  0  0  0  0  0
    0.9497    0.5583   -1.3995 H   0  0  0  0  0  0  0  0  0  0  0  0
    0.6337   -0.5466    0.8386 H   0  0  0  0  0  0  0  0  0  0  0  0
   -0.1689    0.9209    1.3450 H   0  0  0  0  0  0  0  0  0  0  0  0
    3.3365   -0.3958    0.6503 H   0  0  0  0  0  0  0  0  0  0  0  0
    5.8848    0.9536    0.8591 H   0  0  0  0  0  0  0  0  0  0  0  0
    6.3770    3.2197    0.8065 H   0  0  0  0  0  0  0  0  0  0  0  0
    5.2451    3.5918    2.0849 H   0  0  0  0  0  0  0  0  0  0  0  0
    6.9381    3.4389    3.5987 H   0  0  0  0  0  0  0  0  0  0  0  0
    8.0538    2.9949    2.3290 H   0  0  0  0  0  0  0  0  0  0  0  0
    7.8063    0.7510    2.7334 H   0  0  0  0  0  0  0  0  0  0  0  0
    7.2717    1.2861    4.3088 H   0  0  0  0  0  0  0  0  0  0  0  0
    4.9031    2.4087    4.1415 H   0  0  0  0  0  0  0  0  0  0  0  0
    4.9538    0.8349    4.8984 H   0  0  0  0  0  0  0  0  0  0  0  0
    3.7702    1.1701    3.6571 H   0  0  0  0  0  0  0  0  0  0  0  0
  1 17  1  0  0  0  0
  1 26  1  0  0  0  0
  1 27  1  0  0  0  0
  1 28  1  0  0  0  0
  2 17  1  0  0  0  0
  2 29  1  0  0  0  0
  2 30  1  0  0  0  0
  2 31  1  0  0  0  0
  3 17  1  0  0  0  0
  3  4  1  0  0  0  0
  3 32  1  0  0  0  0
  3 33  1  0  0  0  0
  4 25  1  0  0  0  0
  4  5  2  0  0  0  0
  5  6  1  0  0  0  0
  5 34  1  0  0  0  0
  6  7  1  0  0  0  0
  6 23  2  0  0  0  0
  7 18  1  0  0  0  0
  7 24  2  0  0  0  0
  8 18  1  0  0  0  0
  8  9  1  0  0  0  0
  8 36  1  0  0  0  0
  8 37  1  0  0  0  0
  9 19  1  0  0  0  0
  9 38  1  0  0  0  0
  9 39  1  0  0  0  0
 10 19  1  0  0  0  0
 10 40  1  0  0  0  0
 10 11  2  0  0  0  0
 11 12  1  0  0  0  0
 11 21  1  0  0  0  0
 12 13  1  0  0  0  0
 12 20  1  0  0  0  0
 12 41  1  6  0  0  0
 13 14  1  0  0  0  0
 13 42  1  0  0  0  0
 13 43  1  0  0  0  0
 14 15  1  0  0  0  0
 14 44  1  0  0  0  0
 14 45  1  0  0  0  0
 15 20  1  0  0  0  0
 15 46  1  0  0  0  0
 15 47  1  0  0  0  0
 16 20  1  0  0  0  0
 16 48  1  0  0  0  0
 16 49  1  0  0  0  0
 16 50  1  0  0  0  0
 18 35  1  0  0  0  0
 19 22  1  0  0  0  0
 21 22  2  0  0  0  0
 23 25  1  0  0  0  0
M  END
>  <score>
0.41286617517471313

$$$$
PV-003686130876
 OpenBabel08202115463D

 53 55  0  0  0  0  0  0  0  0999 V2000
   -2.7533    0.0814   -2.5014 O   0  0  0  0  0  0  0  0  0  0  0  0
   -3.9868   -2.4352   -2.9114 O   0  0  0  0  0  0  0  0  0  0  0  0
   -6.3486   -4.1600   -4.1314 O   0  0  0  0  0  0  0  0  0  0  0  0
   -2.0517    2.8489    1.5648 O   0  0  0  0  0  0  0  0  0  0  0  0
    2.5107    2.7031   -0.2454 O   0  0  0  0  0  0  0  0  0  0  0  0
    5.9883   -0.1299    2.8644 O   0  0  0  0  0  0  0  0  0  0  0  0
   -2.0626   -0.5824   -1.7460 C   0  0  0  0  0  0  0  0  0  0  0  0
   -1.8125   -2.0452   -1.9985 C   0  0  0  0  0  0  0  0  0  0  0  0
   -3.0611   -2.8763   -1.9270 C   0  0  0  0  0  0  0  0  0  0  0  0
   -5.3135   -2.9280   -2.7160 C   0  0  0  0  0  0  0  0  0  0  0  0
   -5.4987   -4.4305   -2.9840 C   0  0  0  0  0  0  0  0  0  0  0  0
   -6.2659   -2.7323   -3.9077 C   0  0  0  0  0  0  0  0  0  0  0  0
   -1.5627    1.3608   -0.3077 C   0  0  1  0  0  0  0  0  0  0  0  0
   -2.1544    1.5397    1.0476 C   0  0  0  0  0  0  0  0  0  0  0  0
   -0.1968    2.0163   -0.4302 C   0  0  0  0  0  0  0  0  0  0  0  0
    2.0894    1.7625    0.4225 C   0  0  0  0  0  0  0  0  0  0  0  0
    2.9807    1.0362    1.4052 C   0  0  1  0  0  0  0  0  0  0  0  0
    4.4436    0.9436    0.8690 C   0  0  0  0  0  0  0  0  0  0  0  0
    5.2009    1.9576    1.8196 C   0  0  1  0  0  0  0  0  0  0  0  0
    4.0979    2.9555    2.2803 C   0  0  0  0  0  0  0  0  0  0  0  0
    4.1983    1.4131    2.2090 C   0  0  1  0  0  0  0  0  0  0  0  0
    3.9677    0.9987    3.6700 C   0  0  0  0  0  0  0  0  0  0  0  0
    5.4059    1.1463    3.1333 C   0  0  1  0  0  0  0  0  0  0  0  0
   -1.4805   -0.0721   -0.6492 N   0  0  0  0  0  0  0  0  0  0  0  0
    0.8339    1.3137    0.3362 N   0  0  0  0  0  0  0  0  0  0  0  0
   -1.1218   -2.4043   -1.2644 H   0  0  0  0  0  0  0  0  0  0  0  0
   -1.3860   -2.1544   -2.9737 H   0  0  0  0  0  0  0  0  0  0  0  0
   -3.4998   -2.7764   -0.9562 H   0  0  0  0  0  0  0  0  0  0  0  0
   -2.8158   -3.9027   -2.1041 H   0  0  0  0  0  0  0  0  0  0  0  0
   -5.6870   -2.5845   -1.7740 H   0  0  0  0  0  0  0  0  0  0  0  0
   -4.5904   -4.9394   -3.2309 H   0  0  0  0  0  0  0  0  0  0  0  0
   -5.9961   -4.9513   -2.1926 H   0  0  0  0  0  0  0  0  0  0  0  0
   -7.2003   -2.2836   -3.6424 H   0  0  0  0  0  0  0  0  0  0  0  0
   -5.8297   -2.1937   -4.7229 H   0  0  0  0  0  0  0  0  0  0  0  0
   -0.9837   -0.6722   -0.0547 H   0  0  0  0  0  0  0  0  0  0  0  0
   -2.2144    1.8352   -1.0114 H   0  0  0  0  0  0  0  0  0  0  0  0
   -1.6542    0.8749    1.7204 H   0  0  0  0  0  0  0  0  0  0  0  0
   -3.1915    1.2818    0.9956 H   0  0  0  0  0  0  0  0  0  0  0  0
   -1.9971    3.4764    0.8403 H   0  0  0  0  0  0  0  0  0  0  0  0
   -0.2655    3.0218   -0.0709 H   0  0  0  0  0  0  0  0  0  0  0  0
    0.0885    2.0242   -1.4615 H   0  0  0  0  0  0  0  0  0  0  0  0
    0.5946    0.4855    0.8022 H   0  0  0  0  0  0  0  0  0  0  0  0
    2.5812    0.0624    1.5975 H   0  0  0  0  0  0  0  0  0  0  0  0
    4.8328   -0.0481    0.9682 H   0  0  0  0  0  0  0  0  0  0  0  0
    4.5036    1.2502   -0.1543 H   0  0  0  0  0  0  0  0  0  0  0  0
    6.0828    2.3998    1.4052 H   0  0  0  0  0  0  0  0  0  0  0  0
    4.3978    3.5705    3.1029 H   0  0  0  0  0  0  0  0  0  0  0  0
    3.7262    3.5730    1.4895 H   0  0  0  0  0  0  0  0  0  0  0  0
    5.1209    1.0581    1.7993 H   0  0  0  0  0  0  0  0  0  0  0  0
    3.8880    1.3937    4.6613 H   0  0  0  0  0  0  0  0  0  0  0  0
    3.6633   -0.0270    3.6688 H   0  0  0  0  0  0  0  0  0  0  0  0
    6.0224    1.6817    3.8248 H   0  0  0  0  0  0  0  0  0  0  0  0
    5.7648   -0.7395    3.5715 H   0  0  0  0  0  0  0  0  0  0  0  0
  4 39  1  0  0  0  0
  6 53  1  0  0  0  0
  7  8  1  0  0  0  0
  7 24  1  0  0  0  0
  7  1  2  0  0  0  0
  8  9  1  0  0  0  0
  8 26  1  0  0  0  0
  8 27  1  0  0  0  0
  9  2  1  0  0  0  0
  9 28  1  0  0  0  0
  9 29  1  0  0  0  0
 10  2  1  0  0  0  0
 10 11  1  0  0  0  0
 10 12  1  0  0  0  0
 10 30  1  0  0  0  0
 11  3  1  0  0  0  0
 11 31  1  0  0  0  0
 11 32  1  0  0  0  0
 12  3  1  0  0  0  0
 12 33  1  0  0  0  0
 12 34  1  0  0  0  0
 13 24  1  0  0  0  0
 13 14  1  0  0  0  0
 13 15  1  0  0  0  0
 13 36  1  6  0  0  0
 14  4  1  0  0  0  0
 14 37  1  0  0  0  0
 14 38  1  0  0  0  0
 15 25  1  0  0  0  0
 15 40  1  0  0  0  0
 15 41  1  0  0  0  0
 16 25  1  0  0  0  0
 16 17  1  0  0  0  0
 16  5  2  0  0  0  0
 17 18  1  0  0  0  0
 17 21  1  0  0  0  0
 17 43  1  1  0  0  0
 18 19  1  0  0  0  0
 18 44  1  0  0  0  0
 18 45  1  0  0  0  0
 19 20  1  0  0  0  0
 19 23  1  0  0  0  0
 19 46  1  6  0  0  0
 20 21  1  0  0  0  0
 20 47  1  0  0  0  0
 20 48  1  0  0  0  0
 21 22  1  0  0  0  0
 21 49  1  6  0  0  0
 22 23  1  0  0  0  0
 22 50  1  0  0  0  0
 22 51  1  0  0  0  0
 23  6  1  0  0  0  0
 23 52  1  1  0  0  0
 24 35  1  0  0  0  0
 25 42  1  0  0  0  0
M  END
>  <score>
0.4130173921585083

$$$$
PV-004087475361
 OpenBabel08202115463D

 54 56  0  0  0  0  0  0  0  0999 V2000
    5.4686    1.6330    4.0370 C   0  0  0  0  0  0  0  0  0  0  0  0
    4.8437    1.7384    2.6508 C   0  0  0  0  0  0  0  0  0  0  0  0
    2.7263    1.5015    1.5188 C   0  0  0  0  0  0  0  0  0  0  0  0
    1.2957    1.0532    1.7456 C   0  0  0  0  0  0  0  0  0  0  0  0
   -0.8925    0.6256    0.7680 C   0  0  1  0  0  0  0  0  0  0  0  0
   -1.7400    1.2850   -0.3252 C   0  0  0  0  0  0  0  0  0  0  0  0
   -1.7729    0.2634   -1.4499 C   0  0  0  0  0  0  0  0  0  0  0  0
   -1.9116   -1.0538   -0.6788 C   0  0  2  0  0  0  0  0  0  0  0  0
   -3.3266   -1.2647   -0.2438 C   0  0  0  0  0  0  0  0  0  0  0  0
   -4.4574   -2.8210   -1.7843 C   0  0  0  0  0  0  0  0  0  0  0  0
   -5.5878   -3.0186   -2.7249 C   0  0  0  0  0  0  0  0  0  0  0  0
   -5.8289   -4.2564   -3.3333 C   0  0  0  0  0  0  0  0  0  0  0  0
   -6.9023   -4.3463   -4.1805 C   0  0  0  0  0  0  0  0  0  0  0  0
   -7.6764   -3.1955   -4.3655 C   0  0  0  0  0  0  0  0  0  0  0  0
   -0.9919   -0.8878    0.5342 C   0  0  0  0  0  0  0  0  0  0  0  0
    5.0611    3.1379    2.0519 C   0  0  0  0  0  0  0  0  0  0  0  0
    5.1952    2.9131    0.5682 C   0  0  0  0  0  0  0  0  0  0  0  0
    5.4724    1.4997    0.3272 C   0  0  0  0  0  0  0  0  0  0  0  0
    5.5675    0.8098    1.6414 C   0  0  0  0  0  0  0  0  0  0  0  0
    3.4578    1.4259    2.7295 O   0  0  0  0  0  0  0  0  0  0  0  0
    0.9081    0.7070    2.8494 O   0  0  0  0  0  0  0  0  0  0  0  0
   -3.6856   -3.7364   -1.5501 O   0  0  0  0  0  0  0  0  0  0  0  0
    0.5027    1.0650    0.6633 N   0  0  0  0  0  0  0  0  0  0  0  0
   -4.3023   -1.5751   -1.2902 N   0  0  0  0  0  0  0  0  0  0  0  0
   -7.4041   -2.0345   -3.7768 N   0  0  0  0  0  0  0  0  0  0  0  0
   -6.3444   -1.9463   -2.9436 N   0  0  0  0  0  0  0  0  0  0  0  0
    4.9717    2.3053    4.7048 H   0  0  0  0  0  0  0  0  0  0  0  0
    6.5061    1.8886    3.9806 H   0  0  0  0  0  0  0  0  0  0  0  0
    5.3667    0.6312    4.3986 H   0  0  0  0  0  0  0  0  0  0  0  0
    3.1843    0.8675    0.7886 H   0  0  0  0  0  0  0  0  0  0  0  0
    2.7288    2.5118    1.1665 H   0  0  0  0  0  0  0  0  0  0  0  0
    0.8565    1.3680   -0.1988 H   0  0  0  0  0  0  0  0  0  0  0  0
   -1.2746    0.8770    1.7353 H   0  0  0  0  0  0  0  0  0  0  0  0
   -2.7284    1.4857    0.0322 H   0  0  0  0  0  0  0  0  0  0  0  0
   -1.2878    2.1967   -0.6558 H   0  0  0  0  0  0  0  0  0  0  0  0
   -0.8689    0.2857   -2.0219 H   0  0  0  0  0  0  0  0  0  0  0  0
   -2.6094    0.4247   -2.0974 H   0  0  0  0  0  0  0  0  0  0  0  0
   -1.5964   -1.8797   -1.2818 H   0  0  0  0  0  0  0  0  0  0  0  0
   -3.6510   -0.3699    0.2452 H   0  0  0  0  0  0  0  0  0  0  0  0
   -3.3326   -2.0755    0.4543 H   0  0  0  0  0  0  0  0  0  0  0  0
   -4.8622   -0.8529   -1.6441 H   0  0  0  0  0  0  0  0  0  0  0  0
   -5.2165   -5.0766   -3.1491 H   0  0  0  0  0  0  0  0  0  0  0  0
   -7.1327   -5.2360   -4.6674 H   0  0  0  0  0  0  0  0  0  0  0  0
   -8.5039   -3.2507   -4.9931 H   0  0  0  0  0  0  0  0  0  0  0  0
   -0.0254   -1.2990    0.3298 H   0  0  0  0  0  0  0  0  0  0  0  0
   -1.4120   -1.3718    1.3910 H   0  0  0  0  0  0  0  0  0  0  0  0
    5.9514    3.5811    2.4466 H   0  0  0  0  0  0  0  0  0  0  0  0
    4.2239    3.7703    2.2618 H   0  0  0  0  0  0  0  0  0  0  0  0
    4.2841    3.1888    0.0795 H   0  0  0  0  0  0  0  0  0  0  0  0
    5.9992    3.5070    0.1863 H   0  0  0  0  0  0  0  0  0  0  0  0
    6.3967    1.3979   -0.2021 H   0  0  0  0  0  0  0  0  0  0  0  0
    4.6808    1.0696   -0.2502 H   0  0  0  0  0  0  0  0  0  0  0  0
    6.5919    0.6795    1.9217 H   0  0  0  0  0  0  0  0  0  0  0  0
    5.0848   -0.1441    1.5986 H   0  0  0  0  0  0  0  0  0  0  0  0
  1  2  1  0  0  0  0
  1 27  1  0  0  0  0
  1 28  1  0  0  0  0
  1 29  1  0  0  0  0
  2 20  1  0  0  0  0
  2 16  1  0  0  0  0
  2 19  1  0  0  0  0
  3 20  1  0  0  0  0
  3  4  1  0  0  0  0
  3 30  1  0  0  0  0
  3 31  1  0  0  0  0
  4 23  1  0  0  0  0
  4 21  2  0  0  0  0
  5 23  1  0  0  0  0
  5  6  1  0  0  0  0
  5 15  1  0  0  0  0
  5 33  1  1  0  0  0
  6  7  1  0  0  0  0
  6 34  1  0  0  0  0
  6 35  1  0  0  0  0
  7  8  1  0  0  0  0
  7 36  1  0  0  0  0
  7 37  1  0  0  0  0
  8  9  1  0  0  0  0
  8 15  1  0  0  0  0
  8 38  1  6  0  0  0
  9 24  1  0  0  0  0
  9 39  1  0  0  0  0
  9 40  1  0  0  0  0
 10 24  1  0  0  0  0
 10 11  1  0  0  0  0
 10 22  2  0  0  0  0
 11 26  1  0  0  0  0
 11 12  2  0  0  0  0
 12 13  1  0  0  0  0
 12 42  1  0  0  0  0
 13 43  1  0  0  0  0
 13 14  2  0  0  0  0
 14 25  1  0  0  0  0
 14 44  1  0  0  0  0
 15 45  1  0  0  0  0
 15 46  1  0  0  0  0
 16 17  1  0  0  0  0
 16 47  1  0  0  0  0
 16 48  1  0  0  0  0
 17 18  1  0  0  0  0
 17 49  1  0  0  0  0
 17 50  1  0  0  0  0
 18 19  1  0  0  0  0
 18 51  1  0  0  0  0
 18 52  1  0  0  0  0
 19 53  1  0  0  0  0
 19 54  1  0  0  0  0
 23 32  1  0  0  0  0
 24 41  1  0  0  0  0
 25 26  2  0  0  0  0
M  END
>  <score>
0.41332548856735229

$$$$
PV-002849734867
 OpenBabel08202115463D

 49 52  0  0  0  0  0  0  0  0999 V2000
   -1.5744   -1.1754    0.6161 O   0  0  0  0  0  0  0  0  0  0  0  0
    1.8044    0.2117    1.5349 O   0  0  0  0  0  0  0  0  0  0  0  0
    7.1572   -0.3859    2.4958 O   0  0  0  0  0  0  0  0  0  0  0  0
   -6.0999   -4.0991   -3.9986 O   0  0  0  0  0  0  0  0  0  0  0  0
   -2.2747   -0.5720   -0.1857 C   0  0  0  0  0  0  0  0  0  0  0  0
   -1.0391    1.4861    0.1865 C   0  0  0  0  0  0  0  0  0  0  0  0
    0.2999    1.3470   -0.5235 C   0  0  0  0  0  0  0  0  0  0  0  0
    2.0781    1.3472    1.1553 C   0  0  0  0  0  0  0  0  0  0  0  0
    3.1757    2.1557    1.8191 C   0  0  1  0  0  0  0  0  0  0  0  0
    3.2959    2.1757    3.3455 C   0  0  0  0  0  0  0  0  0  0  0  0
    4.3374    1.4455    2.5051 C   0  0  1  0  0  0  0  0  0  0  0  0
    4.6836   -0.0475    2.4974 C   0  0  0  0  0  0  0  0  0  0  0  0
    6.0671    0.3566    3.0367 C   0  0  2  0  0  0  0  0  0  0  0  0
    5.8382    1.7309    2.3832 C   0  0  0  0  0  0  0  0  0  0  0  0
    0.2973    1.4794   -2.0143 C   0  0  0  0  0  0  0  0  0  0  0  0
    0.5269    0.1405   -1.3790 C   0  0  0  0  0  0  0  0  0  0  0  0
   -3.3741   -1.2603   -0.9013 C   0  0  0  0  0  0  0  0  0  0  0  0
   -4.3157   -0.5137   -1.5842 C   0  0  0  0  0  0  0  0  0  0  0  0
   -5.3453   -1.1482   -2.2615 C   0  0  0  0  0  0  0  0  0  0  0  0
   -5.4333   -2.5274   -2.2495 C   0  0  0  0  0  0  0  0  0  0  0  0
   -6.5583   -3.2193   -2.9824 C   0  0  0  0  0  0  0  0  0  0  0  0
   -4.4891   -3.2765   -1.5647 C   0  0  0  0  0  0  0  0  0  0  0  0
   -3.4625   -2.6436   -0.8894 C   0  0  0  0  0  0  0  0  0  0  0  0
   -2.0988    0.7334   -0.4680 N   0  0  0  0  0  0  0  0  0  0  0  0
    1.4427    1.9498    0.1462 N   0  0  0  0  0  0  0  0  0  0  0  0
   -2.6855    1.1770   -1.1155 H   0  0  0  0  0  0  0  0  0  0  0  0
   -0.9341    1.1289    1.1896 H   0  0  0  0  0  0  0  0  0  0  0  0
   -1.3128    2.5204    0.2024 H   0  0  0  0  0  0  0  0  0  0  0  0
    1.7572    2.8282   -0.1535 H   0  0  0  0  0  0  0  0  0  0  0  0
    3.3514    3.0488    1.2567 H   0  0  0  0  0  0  0  0  0  0  0  0
    2.6053    1.6192    3.9441 H   0  0  0  0  0  0  0  0  0  0  0  0
    3.5556    3.0829    3.8501 H   0  0  0  0  0  0  0  0  0  0  0  0
    4.0998   -0.6466    3.1646 H   0  0  0  0  0  0  0  0  0  0  0  0
    4.6949   -0.5002    1.5280 H   0  0  0  0  0  0  0  0  0  0  0  0
    6.1428    0.3760    4.1038 H   0  0  0  0  0  0  0  0  0  0  0  0
    7.4227   -0.0006    1.6576 H   0  0  0  0  0  0  0  0  0  0  0  0
    6.1984    1.8156    1.3793 H   0  0  0  0  0  0  0  0  0  0  0  0
    6.1843    2.5641    2.9584 H   0  0  0  0  0  0  0  0  0  0  0  0
    1.1024    1.9823   -2.5081 H   0  0  0  0  0  0  0  0  0  0  0  0
   -0.6180    1.6759   -2.5324 H   0  0  0  0  0  0  0  0  0  0  0  0
   -0.2247   -0.6184   -1.4440 H   0  0  0  0  0  0  0  0  0  0  0  0
    1.4957   -0.3119   -1.4197 H   0  0  0  0  0  0  0  0  0  0  0  0
   -4.2517    0.5244   -1.5898 H   0  0  0  0  0  0  0  0  0  0  0  0
   -6.0515   -0.5865   -2.7786 H   0  0  0  0  0  0  0  0  0  0  0  0
   -7.1812   -2.4745   -3.4318 H   0  0  0  0  0  0  0  0  0  0  0  0
   -7.1296   -3.7836   -2.2752 H   0  0  0  0  0  0  0  0  0  0  0  0
   -5.8492   -3.5907   -4.7734 H   0  0  0  0  0  0  0  0  0  0  0  0
   -4.5531   -4.3145   -1.5591 H   0  0  0  0  0  0  0  0  0  0  0  0
   -2.7564   -3.2054   -0.3723 H   0  0  0  0  0  0  0  0  0  0  0  0
  3 36  1  0  0  0  0
  4 47  1  0  0  0  0
  5 24  1  0  0  0  0
  5 17  1  0  0  0  0
  5  1  2  0  0  0  0
  6 24  1  0  0  0  0
  6  7  1  0  0  0  0
  6 27  1  0  0  0  0
  6 28  1  0  0  0  0
  7 25  1  0  0  0  0
  7 15  1  0  0  0  0
  7 16  1  0  0  0  0
  8 25  1  0  0  0  0
  8  9  1  0  0  0  0
  8  2  2  0  0  0  0
  9 10  1  0  0  0  0
  9 11  1  0  0  0  0
  9 30  1  6  0  0  0
 10 31  1  0  0  0  0
 10 32  1  0  0  0  0
 11 10  1  1  0  0  0
 11 12  1  0  0  0  0
 11 14  1  0  0  0  0
 12 13  1  0  0  0  0
 12 33  1  0  0  0  0
 12 34  1  0  0  0  0
 13  3  1  0  0  0  0
 13 14  1  0  0  0  0
 13 35  1  1  0  0  0
 14 37  1  0  0  0  0
 14 38  1  0  0  0  0
 15 16  1  0  0  0  0
 15 39  1  0  0  0  0
 15 40  1  0  0  0  0
 16 41  1  0  0  0  0
 16 42  1  0  0  0  0
 17 23  1  0  0  0  0
 17 18  2  0  0  0  0
 18 19  1  0  0  0  0
 18 43  1  0  0  0  0
 19 44  1  0  0  0  0
 19 20  2  0  0  0  0
 20 21  1  0  0  0  0
 20 22  1  0  0  0  0
 21  4  1  0  0  0  0
 21 45  1  0  0  0  0
 21 46  1  0  0  0  0
 22 48  1  0  0  0  0
 22 23  2  0  0  0  0
 23 49  1  0  0  0  0
 24 26  1  0  0  0  0
 25 29  1  0  0  0  0
M  END
>  <score>
0.41360628604888916

$$$$
PV-003374851439
 OpenBabel08202115463D

 53 54  0  0  0  0  0  0  0  0999 V2000
   -6.8805   -4.9144   -4.2868 C   0  0  0  0  0  0  0  0  0  0  0  0
   -5.6690   -3.0293   -3.1851 C   0  0  0  0  0  0  0  0  0  0  0  0
   -4.2938   -1.3255   -2.0190 C   0  0  0  0  0  0  0  0  0  0  0  0
   -2.8839   -1.1743   -1.5049 C   0  0  0  0  0  0  0  0  0  0  0  0
   -1.1456    0.2918   -0.5456 C   0  0  1  0  0  0  0  0  0  0  0  0
   -0.3543    0.8591   -1.7063 C   0  0  0  0  0  0  0  0  0  0  0  0
    1.0246    1.3228   -1.2323 C   0  0  0  0  0  0  0  0  0  0  0  0
    0.2238    1.7178    0.9815 C   0  0  2  0  0  0  0  0  0  0  0  0
    1.0113    0.5219    1.4837 C   0  0  0  0  0  0  0  0  0  0  0  0
    3.4148    1.0060    1.4019 C   0  0  0  0  0  0  0  0  0  0  0  0
    4.6543    1.3576    2.2014 C   0  0  1  0  0  0  0  0  0  0  0  0
    5.9038    1.1557    1.3270 C   0  0  0  0  0  0  0  0  0  0  0  0
    4.5797    2.7805    2.7290 C   0  0  0  0  0  0  0  0  0  0  0  0
    3.7625    2.5974    3.9969 C   0  0  0  0  0  0  0  0  0  0  0  0
    4.7373    0.5329    3.4712 C   0  0  0  0  0  0  0  0  0  0  0  0
   -1.1914    1.2724    0.6242 C   0  0  0  0  0  0  0  0  0  0  0  0
   -5.7575   -4.3779   -3.5326 N   0  0  0  0  0  0  0  0  0  0  0  0
   -4.5768   -2.6723   -2.4923 N   0  0  0  0  0  0  0  0  0  0  0  0
   -2.5226    0.0131   -0.9933 N   0  0  0  0  0  0  0  0  0  0  0  0
    2.2815    0.9056    2.1023 N   0  0  0  0  0  0  0  0  0  0  0  0
   -6.5793   -2.2632   -3.5277 O   0  0  0  0  0  0  0  0  0  0  0  0
   -2.0902   -2.1130   -1.5541 O   0  0  0  0  0  0  0  0  0  0  0  0
    0.8778    2.2635   -0.1570 O   0  0  0  0  0  0  0  0  0  0  0  0
    3.4687    0.8280    0.1858 O   0  0  0  0  0  0  0  0  0  0  0  0
    4.1679    1.3301    4.5263 O   0  0  0  0  0  0  0  0  0  0  0  0
   -7.6545   -5.2130   -3.6111 H   0  0  0  0  0  0  0  0  0  0  0  0
   -6.5564   -5.7615   -4.8545 H   0  0  0  0  0  0  0  0  0  0  0  0
   -7.2562   -4.1629   -4.9495 H   0  0  0  0  0  0  0  0  0  0  0  0
   -5.0383   -4.9849   -3.2591 H   0  0  0  0  0  0  0  0  0  0  0  0
   -3.9202   -3.3710   -2.2898 H   0  0  0  0  0  0  0  0  0  0  0  0
   -4.9740   -1.0911   -1.2270 H   0  0  0  0  0  0  0  0  0  0  0  0
   -4.4384   -0.6408   -2.8284 H   0  0  0  0  0  0  0  0  0  0  0  0
   -3.1976    0.7193   -0.9147 H   0  0  0  0  0  0  0  0  0  0  0  0
   -0.6848   -0.6175   -0.2206 H   0  0  0  0  0  0  0  0  0  0  0  0
   -0.8834    1.6916   -2.1208 H   0  0  0  0  0  0  0  0  0  0  0  0
   -0.2346    0.1036   -2.4545 H   0  0  0  0  0  0  0  0  0  0  0  0
    1.5410    1.7899   -2.0448 H   0  0  0  0  0  0  0  0  0  0  0  0
    1.5856    0.4780   -0.8910 H   0  0  0  0  0  0  0  0  0  0  0  0
    0.1752    2.4614    1.7494 H   0  0  0  0  0  0  0  0  0  0  0  0
    1.2145   -0.1264    0.6571 H   0  0  0  0  0  0  0  0  0  0  0  0
    0.4202    0.0020    2.2085 H   0  0  0  0  0  0  0  0  0  0  0  0
    2.3012    1.0954    3.0635 H   0  0  0  0  0  0  0  0  0  0  0  0
    6.7822    1.3142    1.9172 H   0  0  0  0  0  0  0  0  0  0  0  0
    5.8882    1.8540    0.5164 H   0  0  0  0  0  0  0  0  0  0  0  0
    5.9102    0.1584    0.9393 H   0  0  0  0  0  0  0  0  0  0  0  0
    4.0842    3.4277    2.0359 H   0  0  0  0  0  0  0  0  0  0  0  0
    5.5535    3.1675    2.9455 H   0  0  0  0  0  0  0  0  0  0  0  0
    3.9733    3.3802    4.6952 H   0  0  0  0  0  0  0  0  0  0  0  0
    2.7165    2.5922    3.7712 H   0  0  0  0  0  0  0  0  0  0  0  0
    5.7582    0.3029    3.6941 H   0  0  0  0  0  0  0  0  0  0  0  0
    4.1833   -0.3753    3.3566 H   0  0  0  0  0  0  0  0  0  0  0  0
   -1.6376    0.7942    1.4711 H   0  0  0  0  0  0  0  0  0  0  0  0
   -1.7736    2.1269    0.3487 H   0  0  0  0  0  0  0  0  0  0  0  0
  1 17  1  0  0  0  0
  1 26  1  0  0  0  0
  1 27  1  0  0  0  0
  1 28  1  0  0  0  0
  2 17  1  0  0  0  0
  2 18  1  0  0  0  0
  2 21  2  0  0  0  0
  3 18  1  0  0  0  0
  3  4  1  0  0  0  0
  3 31  1  0  0  0  0
  3 32  1  0  0  0  0
  4 19  1  0  0  0  0
  4 22  2  0  0  0  0
  5 19  1  0  0  0  0
  5  6  1  0  0  0  0
  5 16  1  0  0  0  0
  5 34  1  1  0  0  0
  6  7  1  0  0  0  0
  6 35  1  0  0  0  0
  6 36  1  0  0  0  0
  7 23  1  0  0  0  0
  7 37  1  0  0  0  0
  7 38  1  0  0  0  0
  8 23  1  0  0  0  0
  8  9  1  0  0  0  0
  8 16  1  0  0  0  0
  8 39  1  1  0  0  0
  9 20  1  0  0  0  0
  9 40  1  0  0  0  0
  9 41  1  0  0  0  0
 10 20  1  0  0  0  0
 10 24  2  0  0  0  0
 11 10  1  6  0  0  0
 11 12  1  0  0  0  0
 11 13  1  0  0  0  0
 11 15  1  0  0  0  0
 12 43  1  0  0  0  0
 12 44  1  0  0  0  0
 12 45  1  0  0  0  0
 13 14  1  0  0  0  0
 13 46  1  0  0  0  0
 13 47  1  0  0  0  0
 14 25  1  0  0  0  0
 14 48  1  0  0  0  0
 14 49  1  0  0  0  0
 15 25  1  0  0  0  0
 15 50  1  0  0  0  0
 15 51  1  0  0  0  0
 16 52  1  0  0  0  0
 16 53  1  0  0  0  0
 17 29  1  0  0  0  0
 18 30  1  0  0  0  0
 19 33  1  0  0  0  0
 20 42  1  0  0  0  0
M  END
>  <score>
0.41454654932022095

$$$$
PV-003936936029
 OpenBabel08202115463D

 60 63  0  0  0  0  0  0  0  0999 V2000
   -7.1946   -3.4188   -2.5701 C   0  0  0  0  0  0  0  0  0  0  0  0
   -5.2216   -3.9593   -3.7828 C   0  0  2  0  0  0  0  0  0  0  0  0
   -4.5140   -4.1664   -2.4252 C   0  0  0  0  0  0  0  0  0  0  0  0
   -4.3397   -2.6243   -2.2708 C   0  0  1  0  0  0  0  0  0  0  0  0
   -2.9404   -2.1794   -1.8658 C   0  0  0  0  0  0  0  0  0  0  0  0
   -2.7355   -0.6818   -1.9853 C   0  0  0  0  0  0  0  0  0  0  0  0
   -1.1915    1.2132   -1.3611 C   0  0  0  0  0  0  0  0  0  0  0  0
   -2.1738    1.7186   -0.3170 C   0  0  0  0  0  0  0  0  0  0  0  0
   -1.3261    1.9812   -2.6659 C   0  0  0  0  0  0  0  0  0  0  0  0
    0.2217    1.2779   -0.8374 C   0  0  0  0  0  0  0  0  0  0  0  0
    0.4172    0.7704    0.5799 C   0  0  0  0  0  0  0  0  0  0  0  0
    2.3792    2.0002    1.3900 C   0  0  0  0  0  0  0  0  0  0  0  0
    3.8125    1.9017    1.8749 C   0  0  1  0  0  0  0  0  0  0  0  0
    4.1202    1.9093    3.4036 C   0  0  1  0  0  0  0  0  0  0  0  0
    5.5652    2.3043    3.8379 C   0  0  1  0  0  0  0  0  0  0  0  0
    5.9725    1.2116    4.8730 C   0  0  0  0  0  0  0  0  0  0  0  0
    6.1535   -0.0761    4.0307 C   0  0  0  0  0  0  0  0  0  0  0  0
    5.3532    1.1803    3.5703 C   0  0  1  0  0  0  0  0  0  0  0  0
    6.3832    1.8348    2.5834 C   0  0  0  0  0  0  0  0  0  0  0  0
    5.2374    2.1642    2.3661 C   0  0  1  0  0  0  0  0  0  0  0  0
   -4.6409   -2.5140   -3.7877 C   0  0  0  0  0  0  0  0  0  0  0  0
   -6.6354   -4.0275   -3.7283 O   0  0  0  0  0  0  0  0  0  0  0  0
   -3.6280    0.0498   -2.3811 O   0  0  0  0  0  0  0  0  0  0  0  0
    1.7928    3.0785    1.3495 O   0  0  0  0  0  0  0  0  0  0  0  0
   -1.5284   -0.2311   -1.6320 N   0  0  0  0  0  0  0  0  0  0  0  0
    1.8122    0.8494    1.0171 N   0  0  0  0  0  0  0  0  0  0  0  0
   -8.2395   -3.2482   -2.7254 H   0  0  0  0  0  0  0  0  0  0  0  0
   -6.7046   -2.4855   -2.3862 H   0  0  0  0  0  0  0  0  0  0  0  0
   -7.0603   -4.0648   -1.7278 H   0  0  0  0  0  0  0  0  0  0  0  0
   -4.8639   -4.5865   -4.5725 H   0  0  0  0  0  0  0  0  0  0  0  0
   -3.5915   -4.7043   -2.4925 H   0  0  0  0  0  0  0  0  0  0  0  0
   -5.1332   -4.6119   -1.6749 H   0  0  0  0  0  0  0  0  0  0  0  0
   -5.0616   -2.1541   -1.6363 H   0  0  0  0  0  0  0  0  0  0  0  0
   -2.2305   -2.6718   -2.4971 H   0  0  0  0  0  0  0  0  0  0  0  0
   -2.7730   -2.4660   -0.8486 H   0  0  0  0  0  0  0  0  0  0  0  0
   -0.8076   -0.8890   -1.5422 H   0  0  0  0  0  0  0  0  0  0  0  0
   -2.1911    2.7883   -0.3311 H   0  0  0  0  0  0  0  0  0  0  0  0
   -1.8701    1.3797    0.6515 H   0  0  0  0  0  0  0  0  0  0  0  0
   -3.1515    1.3434   -0.5363 H   0  0  0  0  0  0  0  0  0  0  0  0
   -0.6035    1.6214   -3.3683 H   0  0  0  0  0  0  0  0  0  0  0  0
   -1.1597    3.0226   -2.4853 H   0  0  0  0  0  0  0  0  0  0  0  0
   -2.3098    1.8402   -3.0627 H   0  0  0  0  0  0  0  0  0  0  0  0
    0.5381    2.2996   -0.8681 H   0  0  0  0  0  0  0  0  0  0  0  0
    0.8404    0.6928   -1.4852 H   0  0  0  0  0  0  0  0  0  0  0  0
    0.1011   -0.2508    0.6250 H   0  0  0  0  0  0  0  0  0  0  0  0
   -0.1832    1.3597    1.2410 H   0  0  0  0  0  0  0  0  0  0  0  0
    2.3487    0.0295    1.0371 H   0  0  0  0  0  0  0  0  0  0  0  0
    4.4554    2.4239    1.1974 H   0  0  0  0  0  0  0  0  0  0  0  0
    3.3155    1.9803    4.1075 H   0  0  0  0  0  0  0  0  0  0  0  0
    5.7081    3.3204    4.1401 H   0  0  0  0  0  0  0  0  0  0  0  0
    5.2032    1.0791    5.6048 H   0  0  0  0  0  0  0  0  0  0  0  0
    6.8876    1.4756    5.3605 H   0  0  0  0  0  0  0  0  0  0  0  0
    5.4724   -0.8363    4.3519 H   0  0  0  0  0  0  0  0  0  0  0  0
    7.1568   -0.4398    4.1077 H   0  0  0  0  0  0  0  0  0  0  0  0
    4.9791    1.8137    4.3473 H   0  0  0  0  0  0  0  0  0  0  0  0
    6.1285    2.3783    1.6976 H   0  0  0  0  0  0  0  0  0  0  0  0
    7.4408    1.8815    2.7393 H   0  0  0  0  0  0  0  0  0  0  0  0
    5.3309    3.2661    2.1982 H   0  0  0  0  0  0  0  0  0  0  0  0
   -5.3558   -1.7578   -4.0363 H   0  0  0  0  0  0  0  0  0  0  0  0
   -3.7697   -2.3963   -4.3977 H   0  0  0  0  0  0  0  0  0  0  0  0
  1 22  1  0  0  0  0
  1 27  1  0  0  0  0
  1 28  1  0  0  0  0
  1 29  1  0  0  0  0
  2 22  1  0  0  0  0
  2  3  1  0  0  0  0
  2 21  1  0  0  0  0
  2 30  1  6  0  0  0
  3  4  1  0  0  0  0
  3 31  1  0  0  0  0
  3 32  1  0  0  0  0
  4  5  1  0  0  0  0
  4 21  1  0  0  0  0
  4 33  1  1  0  0  0
  5  6  1  0  0  0  0
  5 34  1  0  0  0  0
  5 35  1  0  0  0  0
  6 25  1  0  0  0  0
  6 23  2  0  0  0  0
  7 25  1  0  0  0  0
  7  8  1  0  0  0  0
  7  9  1  0  0  0  0
  7 10  1  0  0  0  0
  8 37  1  0  0  0  0
  8 38  1  0  0  0  0
  8 39  1  0  0  0  0
  9 40  1  0  0  0  0
  9 41  1  0  0  0  0
  9 42  1  0  0  0  0
 10 11  1  0  0  0  0
 10 43  1  0  0  0  0
 10 44  1  0  0  0  0
 11 26  1  0  0  0  0
 11 45  1  0  0  0  0
 11 46  1  0  0  0  0
 12 26  1  0  0  0  0
 12 13  1  0  0  0  0
 12 24  2  0  0  0  0
 13 14  1  0  0  0  0
 13 20  1  0  0  0  0
 13 48  1  1  0  0  0
 14 15  1  0  0  0  0
 14 20  1  0  0  0  0
 14 49  1  6  0  0  0
 15 16  1  0  0  0  0
 15 19  1  0  0  0  0
 15 50  1  1  0  0  0
 16 17  1  0  0  0  0
 16 51  1  0  0  0  0
 16 52  1  0  0  0  0
 17 18  1  0  0  0  0
 17 53  1  0  0  0  0
 17 54  1  0  0  0  0
 18 19  1  0  0  0  0
 18 20  1  0  0  0  0
 18 55  1  1  0  0  0
 19 56  1  0  0  0  0
 19 57  1  0  0  0  0
 20 58  1  6  0  0  0
 21 59  1  0  0  0  0
 21 60  1  0  0  0  0
 25 36  1  0  0  0  0
 26 47  1  0  0  0  0
M  END
>  <score>
0.41468310356140137

$$$$
Z4152753942
 OpenBabel08202115463D

 53 54  0  0  0  0  0  0  0  0999 V2000
   -8.2778   -3.9249   -4.8701 C   0  0  0  0  0  0  0  0  0  0  0  0
   -6.6676   -3.0060   -3.3886 C   0  0  0  0  0  0  0  0  0  0  0  0
   -5.0688   -1.5255   -2.1865 C   0  0  0  0  0  0  0  0  0  0  0  0
   -4.7301   -0.2136   -1.9142 C   0  0  0  0  0  0  0  0  0  0  0  0
   -3.5389    0.0748   -1.2665 C   0  0  0  0  0  0  0  0  0  0  0  0
   -2.6874   -0.9495   -0.8977 C   0  0  0  0  0  0  0  0  0  0  0  0
   -1.3866   -0.6357   -0.1971 C   0  0  0  0  0  0  0  0  0  0  0  0
   -0.2775   -0.2305   -1.1543 C   0  0  0  0  0  0  0  0  0  0  0  0
    1.4093    1.2354   -0.0144 C   0  0  0  0  0  0  0  0  0  0  0  0
    3.0597    2.5423    1.1788 C   0  0  0  0  0  0  0  0  0  0  0  0
    4.4585    2.4229    1.7906 C   0  0  0  0  0  0  0  0  0  0  0  0
    4.8168    3.8103    2.3346 C   0  0  0  0  0  0  0  0  0  0  0  0
    5.4899    2.0936    0.7080 C   0  0  0  0  0  0  0  0  0  0  0  0
    4.4835    1.3753    2.8785 C   0  0  0  0  0  0  0  0  0  0  0  0
    3.3557    0.6321    3.1672 C   0  0  0  0  0  0  0  0  0  0  0  0
    3.4234   -0.3168    4.1723 C   0  0  0  0  0  0  0  0  0  0  0  0
    5.6151    0.1770    4.5940 C   0  0  0  0  0  0  0  0  0  0  0  0
    5.6366    1.1418    3.6049 C   0  0  0  0  0  0  0  0  0  0  0  0
   -3.0270   -2.2655   -1.1708 C   0  0  0  0  0  0  0  0  0  0  0  0
   -4.2148   -2.5528   -1.8166 C   0  0  0  0  0  0  0  0  0  0  0  0
   -7.8713   -2.8801   -3.9725 O   0  0  0  0  0  0  0  0  0  0  0  0
   -6.0123   -4.0246   -3.3508 O   0  0  0  0  0  0  0  0  0  0  0  0
    0.6685    2.2290   -0.1319 O   0  0  0  0  0  0  0  0  0  0  0  0
   -6.2869   -1.8200   -2.8425 N   0  0  0  0  0  0  0  0  0  0  0  0
    0.9922    0.0182   -0.4693 N   0  0  0  0  0  0  0  0  0  0  0  0
    2.6190    1.3069    0.5482 N   0  0  0  0  0  0  0  0  0  0  0  0
    4.5331   -0.5507    4.8873 N   0  0  0  0  0  0  0  0  0  0  0  0
    6.7374    1.8638    3.3206 F   0  0  0  0  0  0  0  0  0  0  0  0
   -9.1323   -3.6038   -5.4284 H   0  0  0  0  0  0  0  0  0  0  0  0
   -8.5277   -4.8004   -4.3081 H   0  0  0  0  0  0  0  0  0  0  0  0
   -7.4763   -4.1489   -5.5426 H   0  0  0  0  0  0  0  0  0  0  0  0
   -6.9308   -1.0845   -2.9115 H   0  0  0  0  0  0  0  0  0  0  0  0
   -5.3690    0.5574   -2.1952 H   0  0  0  0  0  0  0  0  0  0  0  0
   -3.2860    1.0618   -1.0580 H   0  0  0  0  0  0  0  0  0  0  0  0
   -1.0713   -1.5052    0.3410 H   0  0  0  0  0  0  0  0  0  0  0  0
   -1.5546    0.1677    0.4893 H   0  0  0  0  0  0  0  0  0  0  0  0
   -0.5733    0.6631   -1.6631 H   0  0  0  0  0  0  0  0  0  0  0  0
   -0.1349   -1.0164   -1.8662 H   0  0  0  0  0  0  0  0  0  0  0  0
    1.5876   -0.7471   -0.3267 H   0  0  0  0  0  0  0  0  0  0  0  0
    3.2108    0.5259    0.5361 H   0  0  0  0  0  0  0  0  0  0  0  0
    2.3672    2.7977    1.9535 H   0  0  0  0  0  0  0  0  0  0  0  0
    3.0729    3.3177    0.4417 H   0  0  0  0  0  0  0  0  0  0  0  0
    4.7579    4.5297    1.5447 H   0  0  0  0  0  0  0  0  0  0  0  0
    5.8120    3.7930    2.7274 H   0  0  0  0  0  0  0  0  0  0  0  0
    4.1308    4.0767    3.1113 H   0  0  0  0  0  0  0  0  0  0  0  0
    6.4654    2.0505    1.1454 H   0  0  0  0  0  0  0  0  0  0  0  0
    5.4704    2.8529   -0.0456 H   0  0  0  0  0  0  0  0  0  0  0  0
    5.2546    1.1472    0.2677 H   0  0  0  0  0  0  0  0  0  0  0  0
    2.4723    0.7828    2.6394 H   0  0  0  0  0  0  0  0  0  0  0  0
    2.5721   -0.8757    4.3832 H   0  0  0  0  0  0  0  0  0  0  0  0
    6.4853    0.0085    5.1379 H   0  0  0  0  0  0  0  0  0  0  0  0
   -2.3882   -3.0365   -0.8897 H   0  0  0  0  0  0  0  0  0  0  0  0
   -4.4677   -3.5397   -2.0250 H   0  0  0  0  0  0  0  0  0  0  0  0
  1 21  1  0  0  0  0
  1 29  1  0  0  0  0
  1 30  1  0  0  0  0
  1 31  1  0  0  0  0
  2 21  1  0  0  0  0
  2 24  1  0  0  0  0
  2 22  2  0  0  0  0
  3 24  1  0  0  0  0
  3 20  1  0  0  0  0
  3  4  2  0  0  0  0
  4  5  1  0  0  0  0
  4 33  1  0  0  0  0
  5 34  1  0  0  0  0
  5  6  2  0  0  0  0
  6  7  1  0  0  0  0
  6 19  1  0  0  0  0
  7  8  1  0  0  0  0
  7 35  1  0  0  0  0
  7 36  1  0  0  0  0
  8 25  1  0  0  0  0
  8 37  1  0  0  0  0
  8 38  1  0  0  0  0
  9 25  1  0  0  0  0
  9 26  1  0  0  0  0
  9 23  2  0  0  0  0
 10 26  1  0  0  0  0
 10 11  1  0  0  0  0
 10 41  1  0  0  0  0
 10 42  1  0  0  0  0
 11 12  1  0  0  0  0
 11 13  1  0  0  0  0
 11 14  1  0  0  0  0
 12 43  1  0  0  0  0
 12 44  1  0  0  0  0
 12 45  1  0  0  0  0
 13 46  1  0  0  0  0
 13 47  1  0  0  0  0
 13 48  1  0  0  0  0
 14 18  1  0  0  0  0
 14 15  2  0  0  0  0
 15 16  1  0  0  0  0
 15 49  1  0  0  0  0
 16 50  1  0  0  0  0
 16 27  2  0  0  0  0
 17 27  1  0  0  0  0
 17 51  1  0  0  0  0
 17 18  2  0  0  0  0
 18 28  1  0  0  0  0
 19 52  1  0  0  0  0
 19 20  2  0  0  0  0
 20 53  1  0  0  0  0
 24 32  1  0  0  0  0
 25 39  1  0  0  0  0
 26 40  1  0  0  0  0
M  END
>  <score>
0.41488748788833618

$$$$
PV-002993243822
 OpenBabel08202115463D

 54 56  0  0  0  0  0  0  0  0999 V2000
   -7.2026   -3.0892   -3.9115 C   0  0  0  0  0  0  0  0  0  0  0  0
   -5.8601   -2.3768   -3.7052 C   0  0  1  0  0  0  0  0  0  0  0  0
   -6.1142   -0.9020   -3.4378 C   0  0  0  0  0  0  0  0  0  0  0  0
   -4.7856   -0.1717   -3.3161 C   0  0  0  0  0  0  0  0  0  0  0  0
   -3.8230   -0.8479   -2.3741 C   0  0  0  0  0  0  0  0  0  0  0  0
   -1.9126   -0.5999   -1.0850 C   0  0  0  0  0  0  0  0  0  0  0  0
   -0.7834    0.2421   -0.6185 C   0  0  0  0  0  0  0  0  0  0  0  0
    0.9104    0.8236    0.4566 C   0  0  0  0  0  0  0  0  0  0  0  0
    2.1290    0.9991    1.3491 C   0  0  1  0  0  0  0  0  0  0  0  0
    3.4398    1.2557    0.5732 C   0  0  0  0  0  0  0  0  0  0  0  0
    2.9883    2.8131    2.7630 C   0  0  0  0  0  0  0  0  0  0  0  0
    4.2962    2.4912    2.0909 C   0  0  0  0  0  0  0  0  0  0  0  0
    5.1379    1.4904    2.8719 C   0  0  0  0  0  0  0  0  0  0  0  0
    5.2992    2.0034    4.3078 C   0  0  0  0  0  0  0  0  0  0  0  0
    6.5519    1.3327    2.2724 C   0  0  0  0  0  0  0  0  0  0  0  0
    4.4040    0.1445    2.8996 C   0  0  0  0  0  0  0  0  0  0  0  0
   -2.0214   -1.9214   -0.6221 C   0  0  0  0  0  0  0  0  0  0  0  0
   -3.0737   -2.7241   -1.0771 C   0  0  0  0  0  0  0  0  0  0  0  0
   -3.9888   -2.1801   -1.9894 C   0  0  0  0  0  0  0  0  0  0  0  0
   -5.1273   -3.0202   -2.5318 C   0  0  0  0  0  0  0  0  0  0  0  0
   -2.8097   -0.0815   -1.9415 N   0  0  0  0  0  0  0  0  0  0  0  0
   -0.5455    1.4385   -1.0866 N   0  0  0  0  0  0  0  0  0  0  0  0
    1.9624    2.0450    2.3473 N   0  0  0  0  0  0  0  0  0  0  0  0
    0.1016   -0.1853    0.3514 N   0  0  0  0  0  0  0  0  0  0  0  0
    0.5912    1.8447   -0.3596 O   0  0  0  0  0  0  0  0  0  0  0  0
    2.8997    3.7016    3.6094 O   0  0  0  0  0  0  0  0  0  0  0  0
   -7.8650   -2.4513   -4.4586 H   0  0  0  0  0  0  0  0  0  0  0  0
   -7.6341   -3.3189   -2.9597 H   0  0  0  0  0  0  0  0  0  0  0  0
   -7.0452   -3.9942   -4.4602 H   0  0  0  0  0  0  0  0  0  0  0  0
   -5.2639   -2.4758   -4.5881 H   0  0  0  0  0  0  0  0  0  0  0  0
   -6.6646   -0.7947   -2.5266 H   0  0  0  0  0  0  0  0  0  0  0  0
   -6.6773   -0.4851   -4.2465 H   0  0  0  0  0  0  0  0  0  0  0  0
   -4.3347   -0.1215   -4.2852 H   0  0  0  0  0  0  0  0  0  0  0  0
   -4.9733    0.8189   -2.9578 H   0  0  0  0  0  0  0  0  0  0  0  0
    2.2625    0.0762    1.8739 H   0  0  0  0  0  0  0  0  0  0  0  0
    3.2347    1.8634   -0.2833 H   0  0  0  0  0  0  0  0  0  0  0  0
    3.8552    0.3219    0.2565 H   0  0  0  0  0  0  0  0  0  0  0  0
    4.1375    1.7597    1.2090 H   0  0  0  0  0  0  0  0  0  0  0  0
    1.0731    2.1959    2.7303 H   0  0  0  0  0  0  0  0  0  0  0  0
    4.8560    3.3968    1.9838 H   0  0  0  0  0  0  0  0  0  0  0  0
    4.0906    2.0819    1.1239 H   0  0  0  0  0  0  0  0  0  0  0  0
    4.5083    1.6169    4.9161 H   0  0  0  0  0  0  0  0  0  0  0  0
    5.2610    3.0727    4.3107 H   0  0  0  0  0  0  0  0  0  0  0  0
    6.2408    1.6786    4.6987 H   0  0  0  0  0  0  0  0  0  0  0  0
    6.4812    0.8840    1.3036 H   0  0  0  0  0  0  0  0  0  0  0  0
    7.1425    0.7098    2.9113 H   0  0  0  0  0  0  0  0  0  0  0  0
    7.0122    2.2948    2.1869 H   0  0  0  0  0  0  0  0  0  0  0  0
    4.2737   -0.2119    1.8991 H   0  0  0  0  0  0  0  0  0  0  0  0
    3.4466    0.2700    3.3607 H   0  0  0  0  0  0  0  0  0  0  0  0
    4.9794   -0.5638    3.4582 H   0  0  0  0  0  0  0  0  0  0  0  0
   -1.3264   -2.3001    0.0525 H   0  0  0  0  0  0  0  0  0  0  0  0
   -3.1749   -3.7045   -0.7451 H   0  0  0  0  0  0  0  0  0  0  0  0
   -5.8315   -3.1840   -1.7430 H   0  0  0  0  0  0  0  0  0  0  0  0
   -4.7295   -3.9590   -2.8561 H   0  0  0  0  0  0  0  0  0  0  0  0
  1  2  1  0  0  0  0
  1 27  1  0  0  0  0
  1 28  1  0  0  0  0
  1 29  1  0  0  0  0
  2  3  1  0  0  0  0
  2 20  1  0  0  0  0
  2 30  1  6  0  0  0
  3  4  1  0  0  0  0
  3 31  1  0  0  0  0
  3 32  1  0  0  0  0
  4  5  1  0  0  0  0
  4 33  1  0  0  0  0
  4 34  1  0  0  0  0
  5 19  1  0  0  0  0
  5 21  2  0  0  0  0
  6 21  1  0  0  0  0
  6  7  1  0  0  0  0
  6 17  2  0  0  0  0
  7 24  1  0  0  0  0
  7 22  2  0  0  0  0
  8 25  1  0  0  0  0
  8  9  1  0  0  0  0
  8 24  2  0  0  0  0
  9 10  1  0  0  0  0
  9 23  1  0  0  0  0
  9 35  1  1  0  0  0
 10 36  1  0  0  0  0
 10 37  1  0  0  0  0
 10 38  1  0  0  0  0
 11 23  1  0  0  0  0
 11 12  1  0  0  0  0
 11 26  2  0  0  0  0
 12 13  1  0  0  0  0
 12 40  1  0  0  0  0
 12 41  1  0  0  0  0
 13 14  1  0  0  0  0
 13 15  1  0  0  0  0
 13 16  1  0  0  0  0
 14 42  1  0  0  0  0
 14 43  1  0  0  0  0
 14 44  1  0  0  0  0
 15 45  1  0  0  0  0
 15 46  1  0  0  0  0
 15 47  1  0  0  0  0
 16 48  1  0  0  0  0
 16 49  1  0  0  0  0
 16 50  1  0  0  0  0
 17 18  1  0  0  0  0
 17 51  1  0  0  0  0
 18 52  1  0  0  0  0
 18 19  2  0  0  0  0
 19 20  1  0  0  0  0
 20 53  1  0  0  0  0
 20 54  1  0  0  0  0
 22 25  1  0  0  0  0
 23 39  1  0  0  0  0
M  END
>  <score>
0.41517859697341919

$$$$
Z3633010734
 OpenBabel08202115463D

 47 50  0  0  0  0  0  0  0  0999 V2000
   -4.0101    0.6221   -1.6018 C   0  0  0  0  0  0  0  0  0  0  0  0
   -2.7491   -1.5272   -1.1884 C   0  0  0  0  0  0  0  0  0  0  0  0
   -1.5000   -0.8349   -0.7659 C   0  0  0  0  0  0  0  0  0  0  0  0
   -1.2402    0.5111   -0.8367 C   0  0  0  0  0  0  0  0  0  0  0  0
    0.8504    1.8445   -0.3332 C   0  0  0  0  0  0  0  0  0  0  0  0
    1.5662    2.0315    0.9864 C   0  0  0  0  0  0  0  0  0  0  0  0
    2.7717    1.0997    1.0850 C   0  0  1  0  0  0  0  0  0  0  0  0
    3.8017    1.4722    0.1135 C   0  0  0  0  0  0  0  0  0  0  0  0
    4.9228    1.0704    2.1020 C   0  0  0  0  0  0  0  0  0  0  0  0
    5.7330    2.2034    2.7145 C   0  0  0  0  0  0  0  0  0  0  0  0
    5.4067   -0.2548    2.6564 C   0  0  0  0  0  0  0  0  0  0  0  0
    3.4611    1.2562    2.4006 C   0  0  0  0  0  0  0  0  0  0  0  0
   -4.2039   -3.0149   -1.6982 C   0  0  0  0  0  0  0  0  0  0  0  0
   -4.9086   -4.1953   -1.9481 C   0  0  0  0  0  0  0  0  0  0  0  0
   -6.2037   -4.0764   -2.3998 C   0  0  0  0  0  0  0  0  0  0  0  0
   -6.7995   -2.8302   -2.5964 C   0  0  0  0  0  0  0  0  0  0  0  0
   -6.1220   -1.6535   -2.3563 C   0  0  0  0  0  0  0  0  0  0  0  0
   -4.8090   -1.7700   -1.9063 C   0  0  0  0  0  0  0  0  0  0  0  0
   -3.8587   -0.8328   -1.5657 N   0  0  0  0  0  0  0  0  0  0  0  0
    0.0067    0.6543   -0.3485 N   0  0  0  0  0  0  0  0  0  0  0  0
    0.5132   -0.5402    0.0213 N   0  0  0  0  0  0  0  0  0  0  0  0
   -0.3995   -1.4430   -0.2328 N   0  0  0  0  0  0  0  0  0  0  0  0
   -2.9051   -2.8391   -1.2393 N   0  0  0  0  0  0  0  0  0  0  0  0
    5.0500    1.0863    0.6649 O   0  0  0  0  0  0  0  0  0  0  0  0
   -3.3384    1.0333   -2.3260 H   0  0  0  0  0  0  0  0  0  0  0  0
   -3.7862    1.0277   -0.6373 H   0  0  0  0  0  0  0  0  0  0  0  0
   -5.0165    0.8692   -1.8683 H   0  0  0  0  0  0  0  0  0  0  0  0
   -1.8703    1.2589   -1.1908 H   0  0  0  0  0  0  0  0  0  0  0  0
    0.2368    2.7021   -0.5149 H   0  0  0  0  0  0  0  0  0  0  0  0
    1.5809    1.7570   -1.1101 H   0  0  0  0  0  0  0  0  0  0  0  0
    0.8893    1.8153    1.7864 H   0  0  0  0  0  0  0  0  0  0  0  0
    1.8991    3.0454    1.0644 H   0  0  0  0  0  0  0  0  0  0  0  0
    2.4545    0.0885    0.9373 H   0  0  0  0  0  0  0  0  0  0  0  0
    3.6354    0.9619   -0.8121 H   0  0  0  0  0  0  0  0  0  0  0  0
    3.7846    2.5290   -0.0531 H   0  0  0  0  0  0  0  0  0  0  0  0
    5.7869    2.0713    3.7749 H   0  0  0  0  0  0  0  0  0  0  0  0
    5.2608    3.1382    2.4953 H   0  0  0  0  0  0  0  0  0  0  0  0
    6.7211    2.1974    2.3039 H   0  0  0  0  0  0  0  0  0  0  0  0
    4.5689   -0.8270    2.9965 H   0  0  0  0  0  0  0  0  0  0  0  0
    6.0727   -0.0770    3.4748 H   0  0  0  0  0  0  0  0  0  0  0  0
    5.9201   -0.7960    1.8892 H   0  0  0  0  0  0  0  0  0  0  0  0
    3.2813    2.2303    2.8051 H   0  0  0  0  0  0  0  0  0  0  0  0
    3.1220    0.5139    3.0927 H   0  0  0  0  0  0  0  0  0  0  0  0
   -4.4719   -5.1273   -1.7988 H   0  0  0  0  0  0  0  0  0  0  0  0
   -6.7518   -4.9373   -2.5996 H   0  0  0  0  0  0  0  0  0  0  0  0
   -7.7824   -2.7876   -2.9335 H   0  0  0  0  0  0  0  0  0  0  0  0
   -6.5687   -0.7259   -2.5038 H   0  0  0  0  0  0  0  0  0  0  0  0
  1 19  1  0  0  0  0
  1 25  1  0  0  0  0
  1 26  1  0  0  0  0
  1 27  1  0  0  0  0
  2 19  1  0  0  0  0
  2  3  1  0  0  0  0
  2 23  2  0  0  0  0
  3 22  1  0  0  0  0
  3  4  2  0  0  0  0
  4 20  1  0  0  0  0
  4 28  1  0  0  0  0
  5 20  1  0  0  0  0
  5  6  1  0  0  0  0
  5 29  1  0  0  0  0
  5 30  1  0  0  0  0
  6  7  1  0  0  0  0
  6 31  1  0  0  0  0
  6 32  1  0  0  0  0
  7  8  1  0  0  0  0
  7 12  1  0  0  0  0
  7 33  1  6  0  0  0
  8 24  1  0  0  0  0
  8 34  1  0  0  0  0
  8 35  1  0  0  0  0
  9 24  1  0  0  0  0
  9 10  1  0  0  0  0
  9 11  1  0  0  0  0
  9 12  1  0  0  0  0
 10 36  1  0  0  0  0
 10 37  1  0  0  0  0
 10 38  1  0  0  0  0
 11 39  1  0  0  0  0
 11 40  1  0  0  0  0
 11 41  1  0  0  0  0
 12 42  1  0  0  0  0
 12 43  1  0  0  0  0
 13 23  1  0  0  0  0
 13 18  1  0  0  0  0
 13 14  2  0  0  0  0
 14 15  1  0  0  0  0
 14 44  1  0  0  0  0
 15 45  1  0  0  0  0
 15 16  2  0  0  0  0
 16 17  1  0  0  0  0
 16 46  1  0  0  0  0
 17 47  1  0  0  0  0
 17 18  2  0  0  0  0
 18 19  1  0  0  0  0
 20 21  1  0  0  0  0
 21 22  2  0  0  0  0
M  END
>  <score>
0.41524887084960938

$$$$
PV-003600164302
 OpenBabel08202115463D

 50 51  0  0  0  0  0  0  0  0999 V2000
   -7.9304   -4.4444   -3.7390 C   0  0  0  0  0  0  0  0  0  0  0  0
   -6.2923   -2.8075   -3.2468 C   0  0  0  0  0  0  0  0  0  0  0  0
   -5.0751   -2.5493   -2.3968 C   0  0  0  0  0  0  0  0  0  0  0  0
   -3.3799   -0.9169   -1.9574 C   0  0  0  0  0  0  0  0  0  0  0  0
   -2.5681   -1.8070   -1.2717 C   0  0  0  0  0  0  0  0  0  0  0  0
   -1.4470   -1.3479   -0.6064 C   0  0  0  0  0  0  0  0  0  0  0  0
   -1.1314    0.0017   -0.6293 C   0  0  0  0  0  0  0  0  0  0  0  0
    0.0797   -0.0244    1.4941 C   0  0  0  0  0  0  0  0  0  0  0  0
    1.1981    1.0926   -0.4296 C   0  0  0  0  0  0  0  0  0  0  0  0
    1.3519    2.0195    1.9076 C   0  0  0  0  0  0  0  0  0  0  0  0
    3.3437    2.0839    0.4173 C   0  0  0  0  0  0  0  0  0  0  0  0
    4.2552    1.3762    1.3767 C   0  0  0  0  0  0  0  0  0  0  0  0
    4.0476    1.8765    2.8016 C   0  0  0  0  0  0  0  0  0  0  0  0
    5.3540    1.4915    3.5119 C   0  0  0  0  0  0  0  0  0  0  0  0
    6.4401    1.5755    2.4503 C   0  0  0  0  0  0  0  0  0  0  0  0
    5.7283    1.7277    1.1033 C   0  0  0  0  0  0  0  0  0  0  0  0
   -1.9410    0.8890   -1.3130 C   0  0  0  0  0  0  0  0  0  0  0  0
   -3.0654    0.4288   -1.9804 C   0  0  0  0  0  0  0  0  0  0  0  0
   -6.6523   -4.0937   -3.1858 O   0  0  0  0  0  0  0  0  0  0  0  0
   -6.8715   -1.9847   -3.8955 O   0  0  0  0  0  0  0  0  0  0  0  0
   -4.5142   -1.2509   -2.6463 O   0  0  0  0  0  0  0  0  0  0  0  0
    1.5106    1.1309   -1.6169 O   0  0  0  0  0  0  0  0  0  0  0  0
    0.0500    0.4222    0.0758 N   0  0  0  0  0  0  0  0  0  0  0  0
    1.9395    1.7116    0.5984 N   0  0  0  0  0  0  0  0  0  0  0  0
    4.0396   -0.0214    1.2903 F   0  0  0  0  0  0  0  0  0  0  0  0
   -8.0122   -4.0468   -4.7291 H   0  0  0  0  0  0  0  0  0  0  0  0
   -8.7077   -4.0378   -3.1263 H   0  0  0  0  0  0  0  0  0  0  0  0
   -8.0235   -5.5098   -3.7739 H   0  0  0  0  0  0  0  0  0  0  0  0
   -4.3369   -3.2926   -2.6147 H   0  0  0  0  0  0  0  0  0  0  0  0
   -5.3532   -2.6136   -1.3656 H   0  0  0  0  0  0  0  0  0  0  0  0
   -2.8026   -2.8201   -1.2579 H   0  0  0  0  0  0  0  0  0  0  0  0
   -0.8402   -2.0151   -0.0886 H   0  0  0  0  0  0  0  0  0  0  0  0
   -0.3228    0.7450    2.1194 H   0  0  0  0  0  0  0  0  0  0  0  0
    1.0899   -0.2264    1.7832 H   0  0  0  0  0  0  0  0  0  0  0  0
   -0.5067   -0.9131    1.6003 H   0  0  0  0  0  0  0  0  0  0  0  0
    0.5249    1.3657    2.0907 H   0  0  0  0  0  0  0  0  0  0  0  0
    1.0127    3.0343    1.9163 H   0  0  0  0  0  0  0  0  0  0  0  0
    2.0897    1.8831    2.6704 H   0  0  0  0  0  0  0  0  0  0  0  0
    3.4408    3.1389    0.5671 H   0  0  0  0  0  0  0  0  0  0  0  0
    3.6381    1.8364   -0.5812 H   0  0  0  0  0  0  0  0  0  0  0  0
    3.2083    1.3943    3.2575 H   0  0  0  0  0  0  0  0  0  0  0  0
    3.9023    2.9365    2.8170 H   0  0  0  0  0  0  0  0  0  0  0  0
    5.2881    0.4966    3.9001 H   0  0  0  0  0  0  0  0  0  0  0  0
    5.5594    2.1735    4.3103 H   0  0  0  0  0  0  0  0  0  0  0  0
    7.0311    0.6836    2.4562 H   0  0  0  0  0  0  0  0  0  0  0  0
    7.0689    2.4219    2.6326 H   0  0  0  0  0  0  0  0  0  0  0  0
    6.1454    1.0565    0.3819 H   0  0  0  0  0  0  0  0  0  0  0  0
    5.8131    2.7329    0.7468 H   0  0  0  0  0  0  0  0  0  0  0  0
   -1.7065    1.9022   -1.3269 H   0  0  0  0  0  0  0  0  0  0  0  0
   -3.6723    1.0959   -2.4982 H   0  0  0  0  0  0  0  0  0  0  0  0
  1 19  1  0  0  0  0
  1 26  1  0  0  0  0
  1 27  1  0  0  0  0
  1 28  1  0  0  0  0
  2 19  1  0  0  0  0
  2  3  1  0  0  0  0
  2 20  2  0  0  0  0
  3 21  1  0  0  0  0
  3 29  1  0  0  0  0
  3 30  1  0  0  0  0
  4 21  1  0  0  0  0
  4 18  1  0  0  0  0
  4  5  2  0  0  0  0
  5  6  1  0  0  0  0
  5 31  1  0  0  0  0
  6 32  1  0  0  0  0
  6  7  2  0  0  0  0
  7 23  1  0  0  0  0
  7 17  1  0  0  0  0
  8 23  1  0  0  0  0
  8 33  1  0  0  0  0
  8 34  1  0  0  0  0
  8 35  1  0  0  0  0
  9 23  1  0  0  0  0
  9 24  1  0  0  0  0
  9 22  2  0  0  0  0
 10 24  1  0  0  0  0
 10 36  1  0  0  0  0
 10 37  1  0  0  0  0
 10 38  1  0  0  0  0
 11 24  1  0  0  0  0
 11 12  1  0  0  0  0
 11 39  1  0  0  0  0
 11 40  1  0  0  0  0
 12 25  1  0  0  0  0
 12 13  1  0  0  0  0
 12 16  1  0  0  0  0
 13 14  1  0  0  0  0
 13 41  1  0  0  0  0
 13 42  1  0  0  0  0
 14 15  1  0  0  0  0
 14 43  1  0  0  0  0
 14 44  1  0  0  0  0
 15 16  1  0  0  0  0
 15 45  1  0  0  0  0
 15 46  1  0  0  0  0
 16 47  1  0  0  0  0
 16 48  1  0  0  0  0
 17 49  1  0  0  0  0
 17 18  2  0  0  0  0
 18 50  1  0  0  0  0
M  END
>  <score>
0.41550576686859131

$$$$
PV-004136215847
 OpenBabel08202115463D

 54 56  0  0  0  0  0  0  0  0999 V2000
   -8.3569   -2.7434   -4.1915 C   0  0  0  0  0  0  0  0  0  0  0  0
   -6.9756   -2.6807   -3.5836 C   0  0  0  0  0  0  0  0  0  0  0  0
   -6.3286   -3.8340   -3.1846 C   0  0  0  0  0  0  0  0  0  0  0  0
   -5.0652   -3.7296   -2.6327 C   0  0  0  0  0  0  0  0  0  0  0  0
   -4.4971   -2.4764   -2.5052 C   0  0  0  0  0  0  0  0  0  0  0  0
   -3.1288   -2.2338   -1.9242 C   0  0  0  0  0  0  0  0  0  0  0  0
   -1.3147   -0.7286   -1.3115 C   0  0  1  0  0  0  0  0  0  0  0  0
   -0.7471    0.5823   -1.8598 C   0  0  0  0  0  0  0  0  0  0  0  0
   -0.3554    1.4111   -0.6441 C   0  0  0  0  0  0  0  0  0  0  0  0
   -0.2422    0.4397    0.5229 C   0  0  2  0  0  0  0  0  0  0  0  0
    1.0880   -0.2704    0.5161 C   0  0  0  0  0  0  0  0  0  0  0  0
    2.8419    1.0170    1.7739 C   0  0  0  0  0  0  0  0  0  0  0  0
    3.9862    1.9769    1.5763 C   0  0  0  0  0  0  0  0  0  0  0  0
    5.3008    0.9790    3.3130 C   0  0  0  0  0  0  0  0  0  0  0  0
    6.1212    1.2393    4.5581 C   0  0  0  0  0  0  0  0  0  0  0  0
    6.5997    3.3965    3.8417 C   0  0  0  0  0  0  0  0  0  0  0  0
    5.7942    3.1811    2.5847 C   0  0  0  0  0  0  0  0  0  0  0  0
   -1.4245   -0.5603    0.2381 C   0  0  0  0  0  0  0  0  0  0  0  0
   -6.3341   -1.4659   -3.4158 C   0  0  0  0  0  0  0  0  0  0  0  0
   -2.5081   -3.2134   -1.5013 O   0  0  0  0  0  0  0  0  0  0  0  0
    2.6416    0.4856    2.8652 O   0  0  0  0  0  0  0  0  0  0  0  0
    7.1596    2.1749    4.3108 O   0  0  0  0  0  0  0  0  0  0  0  0
   -2.6404   -0.9847   -1.8869 N   0  0  0  0  0  0  0  0  0  0  0  0
    2.1374    0.7400    0.6709 N   0  0  0  0  0  0  0  0  0  0  0  0
    4.7245    2.2261    2.8307 N   0  0  0  0  0  0  0  0  0  0  0  0
   -5.1079   -1.3504   -2.8864 N   0  0  0  0  0  0  0  0  0  0  0  0
   -8.4532   -3.6399   -4.7676 H   0  0  0  0  0  0  0  0  0  0  0  0
   -8.5061   -1.8945   -4.8255 H   0  0  0  0  0  0  0  0  0  0  0  0
   -9.0898   -2.7402   -3.4119 H   0  0  0  0  0  0  0  0  0  0  0  0
   -6.7829   -4.7627   -3.2971 H   0  0  0  0  0  0  0  0  0  0  0  0
   -4.5522   -4.5783   -2.3193 H   0  0  0  0  0  0  0  0  0  0  0  0
   -3.1700   -0.2417   -2.2445 H   0  0  0  0  0  0  0  0  0  0  0  0
   -0.6597   -1.5409   -1.5481 H   0  0  0  0  0  0  0  0  0  0  0  0
   -1.4879    1.0956   -2.4365 H   0  0  0  0  0  0  0  0  0  0  0  0
    0.1104    0.3895   -2.4701 H   0  0  0  0  0  0  0  0  0  0  0  0
   -1.1054    2.1468   -0.4412 H   0  0  0  0  0  0  0  0  0  0  0  0
    0.5834    1.8956   -0.8140 H   0  0  0  0  0  0  0  0  0  0  0  0
   -0.3749    0.9407    1.4590 H   0  0  0  0  0  0  0  0  0  0  0  0
    1.2179   -0.7905   -0.4099 H   0  0  0  0  0  0  0  0  0  0  0  0
    1.1322   -0.9675    1.3267 H   0  0  0  0  0  0  0  0  0  0  0  0
    2.3472    1.2736   -0.1239 H   0  0  0  0  0  0  0  0  0  0  0  0
    3.5985    2.9060    1.2138 H   0  0  0  0  0  0  0  0  0  0  0  0
    4.6609    1.5656    0.8548 H   0  0  0  0  0  0  0  0  0  0  0  0
    4.5148    0.2906    3.5435 H   0  0  0  0  0  0  0  0  0  0  0  0
    5.9298    0.5620    2.5544 H   0  0  0  0  0  0  0  0  0  0  0  0
    5.4798    1.6258    5.3224 H   0  0  0  0  0  0  0  0  0  0  0  0
    6.5546    0.3181    4.8876 H   0  0  0  0  0  0  0  0  0  0  0  0
    5.9619    3.8015    4.5994 H   0  0  0  0  0  0  0  0  0  0  0  0
    7.3911    4.0862    3.6348 H   0  0  0  0  0  0  0  0  0  0  0  0
    5.3710    4.1129    2.2722 H   0  0  0  0  0  0  0  0  0  0  0  0
    6.4346    2.8037    1.8150 H   0  0  0  0  0  0  0  0  0  0  0  0
   -2.3680   -0.1423    0.5209 H   0  0  0  0  0  0  0  0  0  0  0  0
   -1.2804   -1.4918    0.7445 H   0  0  0  0  0  0  0  0  0  0  0  0
   -6.8273   -0.6006   -3.7150 H   0  0  0  0  0  0  0  0  0  0  0  0
  1  2  1  0  0  0  0
  1 27  1  0  0  0  0
  1 28  1  0  0  0  0
  1 29  1  0  0  0  0
  2 19  1  0  0  0  0
  2  3  2  0  0  0  0
  3  4  1  0  0  0  0
  3 30  1  0  0  0  0
  4 31  1  0  0  0  0
  4  5  2  0  0  0  0
  5  6  1  0  0  0  0
  5 26  1  0  0  0  0
  6 23  1  0  0  0  0
  6 20  2  0  0  0  0
  7 23  1  0  0  0  0
  7  8  1  0  0  0  0
  7 18  1  0  0  0  0
  7 33  1  6  0  0  0
  8  9  1  0  0  0  0
  8 34  1  0  0  0  0
  8 35  1  0  0  0  0
  9 10  1  0  0  0  0
  9 36  1  0  0  0  0
  9 37  1  0  0  0  0
 10 11  1  0  0  0  0
 10 18  1  0  0  0  0
 10 38  1  1  0  0  0
 11 24  1  0  0  0  0
 11 39  1  0  0  0  0
 11 40  1  0  0  0  0
 12 24  1  0  0  0  0
 12 13  1  0  0  0  0
 12 21  2  0  0  0  0
 13 25  1  0  0  0  0
 13 42  1  0  0  0  0
 13 43  1  0  0  0  0
 14 25  1  0  0  0  0
 14 15  1  0  0  0  0
 14 44  1  0  0  0  0
 14 45  1  0  0  0  0
 15 22  1  0  0  0  0
 15 46  1  0  0  0  0
 15 47  1  0  0  0  0
 16 22  1  0  0  0  0
 16 17  1  0  0  0  0
 16 48  1  0  0  0  0
 16 49  1  0  0  0  0
 17 25  1  0  0  0  0
 17 50  1  0  0  0  0
 17 51  1  0  0  0  0
 18 52  1  0  0  0  0
 18 53  1  0  0  0  0
 19 54  1  0  0  0  0
 19 26  2  0  0  0  0
 23 32  1  0  0  0  0
 24 41  1  0  0  0  0
M  END
>  <score>
0.41565728187561035

$$$$
Z1249262917
 OpenBabel08202115463D

 51 53  0  0  0  0  0  0  0  0999 V2000
    6.3292    0.2777    1.6849 C   0  0  0  0  0  0  0  0  0  0  0  0
    5.5967    0.3352    2.9811 C   0  0  0  0  0  0  0  0  0  0  0  0
    5.1322    0.2074    5.0603 C   0  0  0  0  0  0  0  0  0  0  0  0
    3.9440    0.3522    4.4099 C   0  0  0  0  0  0  0  0  0  0  0  0
    3.2692    0.5878    2.0053 C   0  0  0  0  0  0  0  0  0  0  0  0
    3.1142    2.0420    1.5602 C   0  0  1  0  0  0  0  0  0  0  0  0
    4.4472    2.6806    1.1632 C   0  0  0  0  0  0  0  0  0  0  0  0
    2.1080    2.2046    0.4479 C   0  0  0  0  0  0  0  0  0  0  0  0
   -0.2967    1.9272   -0.0814 C   0  0  0  0  0  0  0  0  0  0  0  0
   -2.6599    1.2249   -0.5413 C   0  0  0  0  0  0  0  0  0  0  0  0
   -2.7137   -0.1068   -1.2476 C   0  0  0  0  0  0  0  0  0  0  0  0
   -1.5607   -0.8518   -1.4078 C   0  0  0  0  0  0  0  0  0  0  0  0
   -1.6115   -2.0780   -2.0523 C   0  0  0  0  0  0  0  0  0  0  0  0
   -2.8145   -2.5531   -2.5394 C   0  0  0  0  0  0  0  0  0  0  0  0
   -3.9711   -1.8060   -2.3788 C   0  0  0  0  0  0  0  0  0  0  0  0
   -5.2348   -2.3188   -2.8911 C   0  0  0  0  0  0  0  0  0  0  0  0
   -5.4606   -3.4805   -3.5699 C   0  0  0  0  0  0  0  0  0  0  0  0
   -6.8221   -3.6491   -3.9229 C   0  0  0  0  0  0  0  0  0  0  0  0
   -7.6065   -2.6184   -3.4944 C   0  0  0  0  0  0  0  0  0  0  0  0
   -9.0210   -2.4790   -3.6744 C   0  0  0  0  0  0  0  0  0  0  0  0
   -3.9201   -0.5834   -1.7362 C   0  0  0  0  0  0  0  0  0  0  0  0
    6.1715    0.1996    4.1620 N   0  0  0  0  0  0  0  0  0  0  0  0
    4.2540    0.4306    3.0760 N   0  0  0  0  0  0  0  0  0  0  0  0
    0.7368    1.8370    0.8053 N   0  0  0  0  0  0  0  0  0  0  0  0
   -1.4847    1.4282    0.2927 N   0  0  0  0  0  0  0  0  0  0  0  0
  -10.1557   -2.3995   -3.8438 N   0  0  0  0  0  0  0  0  0  0  0  0
   -0.1176    2.4560   -1.1864 O   0  0  0  0  0  0  0  0  0  0  0  0
   -6.6852   -1.4299   -2.6681 S   0  0  0  0  0  0  0  0  0  0  0  0
    7.3774    0.1707    1.8713 H   0  0  0  0  0  0  0  0  0  0  0  0
    6.1550    1.1799    1.1367 H   0  0  0  0  0  0  0  0  0  0  0  0
    5.9812   -0.5589    1.1157 H   0  0  0  0  0  0  0  0  0  0  0  0
    5.2375    0.1156    6.0908 H   0  0  0  0  0  0  0  0  0  0  0  0
    2.9967    0.3946    4.8368 H   0  0  0  0  0  0  0  0  0  0  0  0
    2.3223    0.2338    2.3557 H   0  0  0  0  0  0  0  0  0  0  0  0
    3.5803    0.0033    1.1648 H   0  0  0  0  0  0  0  0  0  0  0  0
    2.7437    2.5892    2.4017 H   0  0  0  0  0  0  0  0  0  0  0  0
    4.2959    3.7174    0.9460 H   0  0  0  0  0  0  0  0  0  0  0  0
    4.8344    2.1876    0.2960 H   0  0  0  0  0  0  0  0  0  0  0  0
    5.1433    2.5834    1.9700 H   0  0  0  0  0  0  0  0  0  0  0  0
    2.4152    1.5894   -0.3719 H   0  0  0  0  0  0  0  0  0  0  0  0
    2.1096    3.2307    0.1446 H   0  0  0  0  0  0  0  0  0  0  0  0
    0.5547    1.5148    1.7127 H   0  0  0  0  0  0  0  0  0  0  0  0
   -1.5709    1.1716    1.2346 H   0  0  0  0  0  0  0  0  0  0  0  0
   -2.6784    1.9957   -1.2832 H   0  0  0  0  0  0  0  0  0  0  0  0
   -3.5269    1.3066    0.0804 H   0  0  0  0  0  0  0  0  0  0  0  0
   -0.6548   -0.4924   -1.0448 H   0  0  0  0  0  0  0  0  0  0  0  0
   -0.7445   -2.6404   -2.1693 H   0  0  0  0  0  0  0  0  0  0  0  0
   -2.8521   -3.4713   -3.0265 H   0  0  0  0  0  0  0  0  0  0  0  0
   -4.7148   -4.1670   -3.8027 H   0  0  0  0  0  0  0  0  0  0  0  0
   -7.1840   -4.4688   -4.4508 H   0  0  0  0  0  0  0  0  0  0  0  0
   -4.7871   -0.0210   -1.6191 H   0  0  0  0  0  0  0  0  0  0  0  0
  1  2  1  0  0  0  0
  1 29  1  0  0  0  0
  1 30  1  0  0  0  0
  1 31  1  0  0  0  0
  2 23  1  0  0  0  0
  2 22  2  0  0  0  0
  3 22  1  0  0  0  0
  3 32  1  0  0  0  0
  3  4  2  0  0  0  0
  4 23  1  0  0  0  0
  4 33  1  0  0  0  0
  5 23  1  0  0  0  0
  5  6  1  0  0  0  0
  5 34  1  0  0  0  0
  5 35  1  0  0  0  0
  6  7  1  0  0  0  0
  6  8  1  0  0  0  0
  6 36  1  1  0  0  0
  7 37  1  0  0  0  0
  7 38  1  0  0  0  0
  7 39  1  0  0  0  0
  8 24  1  0  0  0  0
  8 40  1  0  0  0  0
  8 41  1  0  0  0  0
  9 24  1  0  0  0  0
  9 25  1  0  0  0  0
  9 27  2  0  0  0  0
 10 25  1  0  0  0  0
 10 11  1  0  0  0  0
 10 44  1  0  0  0  0
 10 45  1  0  0  0  0
 11 21  1  0  0  0  0
 11 12  2  0  0  0  0
 12 13  1  0  0  0  0
 12 46  1  0  0  0  0
 13 47  1  0  0  0  0
 13 14  2  0  0  0  0
 14 15  1  0  0  0  0
 14 48  1  0  0  0  0
 15 16  1  0  0  0  0
 15 21  2  0  0  0  0
 16 28  1  0  0  0  0
 16 17  2  0  0  0  0
 17 18  1  0  0  0  0
 17 49  1  0  0  0  0
 18 50  1  0  0  0  0
 18 19  2  0  0  0  0
 19 20  1  0  0  0  0
 19 28  1  0  0  0  0
 20 26  3  0  0  0  0
 21 51  1  0  0  0  0
 24 42  1  0  0  0  0
 25 43  1  0  0  0  0
M  END
>  <score>
0.41575616598129272

$$$$
Z4879776552
 OpenBabel08202115463D

 45 46  0  0  0  0  0  0  0  0999 V2000
    1.5597   -0.6216    0.4830 O   0  0  0  0  0  0  0  0  0  0  0  0
   -3.9020   -2.2778   -2.1940 O   0  0  0  0  0  0  0  0  0  0  0  0
    5.4566    2.3303    1.8407 O   0  0  0  0  0  0  0  0  0  0  0  0
    1.2230    0.5455    0.5610 C   0  0  0  0  0  0  0  0  0  0  0  0
   -0.1952    1.0436    0.3616 C   0  0  0  0  0  0  0  0  0  0  0  0
   -0.6523   -0.6990   -1.2117 C   0  0  0  0  0  0  0  0  0  0  0  0
   -1.6170   -1.7899   -1.6521 C   0  0  0  0  0  0  0  0  0  0  0  0
   -2.9891   -1.2137   -1.9213 C   0  0  2  0  0  0  0  0  0  0  0  0
   -5.1841   -1.7883   -2.5646 C   0  0  0  0  0  0  0  0  0  0  0  0
   -6.0025   -2.9720   -3.0441 C   0  0  0  0  0  0  0  0  0  0  0  0
   -3.4745   -0.4356   -0.7196 C   0  0  0  0  0  0  0  0  0  0  0  0
   -2.4524    0.6081   -0.3011 C   0  0  0  0  0  0  0  0  0  0  0  0
    3.4739    1.2414    1.2163 C   0  0  1  0  0  0  0  0  0  0  0  0
    4.3753    2.4019    0.8622 C   0  0  0  0  0  0  0  0  0  0  0  0
    5.0375    1.6494    2.9896 C   0  0  2  0  0  0  0  0  0  0  0  0
    5.9745    0.4728    3.2665 C   0  0  0  0  0  0  0  0  0  0  0  0
    3.6114    1.1332    2.7408 C   0  0  0  0  0  0  0  0  0  0  0  0
   -1.1563   -0.0068   -0.0301 N   0  0  0  0  0  0  0  0  0  0  0  0
    2.0965    1.5181    0.8368 N   0  0  0  0  0  0  0  0  0  0  0  0
   -7.1872   -2.5347   -3.4559 F   0  0  0  0  0  0  0  0  0  0  0  0
   -6.2287   -3.7732   -1.9687 F   0  0  0  0  0  0  0  0  0  0  0  0
    5.9253   -0.3919    2.2540 F   0  0  0  0  0  0  0  0  0  0  0  0
    5.6455   -0.1834    4.3657 F   0  0  0  0  0  0  0  0  0  0  0  0
    7.2307    0.8649    3.3902 F   0  0  0  0  0  0  0  0  0  0  0  0
   -0.1838    1.7905   -0.4046 H   0  0  0  0  0  0  0  0  0  0  0  0
   -0.5300    1.4791    1.2799 H   0  0  0  0  0  0  0  0  0  0  0  0
   -0.5339    0.0065   -2.0074 H   0  0  0  0  0  0  0  0  0  0  0  0
    0.2949   -1.1405   -0.9819 H   0  0  0  0  0  0  0  0  0  0  0  0
   -1.2463   -2.2463   -2.5461 H   0  0  0  0  0  0  0  0  0  0  0  0
   -1.6908   -2.5262   -0.8792 H   0  0  0  0  0  0  0  0  0  0  0  0
   -2.9382   -0.5610   -2.7676 H   0  0  0  0  0  0  0  0  0  0  0  0
   -5.0871   -1.0688   -3.3507 H   0  0  0  0  0  0  0  0  0  0  0  0
   -5.6593   -1.3335   -1.7207 H   0  0  0  0  0  0  0  0  0  0  0  0
   -5.4679   -3.4851   -3.8160 H   0  0  0  0  0  0  0  0  0  0  0  0
   -4.3935    0.0535   -0.9669 H   0  0  0  0  0  0  0  0  0  0  0  0
   -3.6373   -1.1121    0.0933 H   0  0  0  0  0  0  0  0  0  0  0  0
   -2.3418    1.3245   -1.0882 H   0  0  0  0  0  0  0  0  0  0  0  0
   -2.7977    1.1004    0.5840 H   0  0  0  0  0  0  0  0  0  0  0  0
    1.7993    2.4503    0.7816 H   0  0  0  0  0  0  0  0  0  0  0  0
    3.8024    0.3423    0.7380 H   0  0  0  0  0  0  0  0  0  0  0  0
    3.8490    3.3297    0.9462 H   0  0  0  0  0  0  0  0  0  0  0  0
    4.7563    2.2961   -0.1321 H   0  0  0  0  0  0  0  0  0  0  0  0
    5.0419    2.3144    3.8278 H   0  0  0  0  0  0  0  0  0  0  0  0
    2.8877    1.7450    3.2377 H   0  0  0  0  0  0  0  0  0  0  0  0
    3.5060    0.1194    3.0665 H   0  0  0  0  0  0  0  0  0  0  0  0
  4  5  1  0  0  0  0
  4 19  1  0  0  0  0
  4  1  2  0  0  0  0
  5 18  1  0  0  0  0
  5 25  1  0  0  0  0
  5 26  1  0  0  0  0
  6 18  1  0  0  0  0
  6  7  1  0  0  0  0
  6 27  1  0  0  0  0
  6 28  1  0  0  0  0
  7  8  1  0  0  0  0
  7 29  1  0  0  0  0
  7 30  1  0  0  0  0
  8  2  1  0  0  0  0
  8 11  1  0  0  0  0
  8 31  1  6  0  0  0
  9  2  1  0  0  0  0
  9 10  1  0  0  0  0
  9 32  1  0  0  0  0
  9 33  1  0  0  0  0
 10 20  1  0  0  0  0
 10 21  1  0  0  0  0
 10 34  1  0  0  0  0
 11 12  1  0  0  0  0
 11 35  1  0  0  0  0
 11 36  1  0  0  0  0
 12 18  1  0  0  0  0
 12 37  1  0  0  0  0
 12 38  1  0  0  0  0
 13 19  1  0  0  0  0
 13 14  1  0  0  0  0
 13 17  1  0  0  0  0
 13 40  1  6  0  0  0
 14  3  1  0  0  0  0
 14 41  1  0  0  0  0
 14 42  1  0  0  0  0
 15  3  1  0  0  0  0
 15 16  1  0  0  0  0
 15 17  1  0  0  0  0
 15 43  1  1  0  0  0
 16 22  1  0  0  0  0
 16 23  1  0  0  0  0
 16 24  1  0  0  0  0
 17 44  1  0  0  0  0
 17 45  1  0  0  0  0
 19 39  1  0  0  0  0
M  END
>  <score>
0.4157944917678833

$$$$
PV-002967165411
 OpenBabel08202115463D

 45 48  0  0  0  0  0  0  0  0999 V2000
   -3.1131    0.0807   -1.6116 O   0  0  0  0  0  0  0  0  0  0  0  0
   -8.4521   -2.3068   -3.2702 O   0  0  0  0  0  0  0  0  0  0  0  0
   -2.3800   -0.8631   -1.3189 C   0  0  0  0  0  0  0  0  0  0  0  0
   -2.9320   -2.2585   -1.4794 C   0  0  0  0  0  0  0  0  0  0  0  0
   -4.2028   -2.3413   -2.2864 C   0  0  0  0  0  0  0  0  0  0  0  0
   -5.3984   -2.3381   -1.6466 C   0  0  0  0  0  0  0  0  0  0  0  0
   -6.5867   -2.3250   -2.4025 C   0  0  0  0  0  0  0  0  0  0  0  0
   -6.4883   -2.3151   -3.8836 C   0  0  0  0  0  0  0  0  0  0  0  0
   -5.2106   -2.3240   -4.4759 C   0  0  0  0  0  0  0  0  0  0  0  0
   -4.1100   -2.3314   -3.6839 C   0  0  0  0  0  0  0  0  0  0  0  0
   -0.3965    0.3689   -0.5984 C   0  0  0  0  0  0  0  0  0  0  0  0
    0.8436    0.2602    0.0016 C   0  0  0  0  0  0  0  0  0  0  0  0
    1.5571    1.4142    0.2677 C   0  0  0  0  0  0  0  0  0  0  0  0
    2.9178    1.4082    0.9233 C   0  0  0  0  0  0  0  0  0  0  0  0
    2.9099    1.3070    2.4399 C   0  0  0  0  0  0  0  0  0  0  0  0
    4.3136    1.3238    2.9833 C   0  0  0  0  0  0  0  0  0  0  0  0
    4.8192    2.5337    3.4327 C   0  0  0  0  0  0  0  0  0  0  0  0
    6.1049    2.6016    3.9355 C   0  0  0  0  0  0  0  0  0  0  0  0
    6.8868    1.4586    3.9953 C   0  0  0  0  0  0  0  0  0  0  0  0
    6.3829    0.2522    3.5473 C   0  0  0  0  0  0  0  0  0  0  0  0
    5.0935    0.1842    3.0430 C   0  0  0  0  0  0  0  0  0  0  0  0
    1.0041    2.6311   -0.0802 C   0  0  0  0  0  0  0  0  0  0  0  0
   -0.2425    2.6480   -0.6811 C   0  0  0  0  0  0  0  0  0  0  0  0
   -7.8808   -2.3181   -2.1982 N   0  0  0  0  0  0  0  0  0  0  0  0
   -7.7441   -2.3044   -4.2572 N   0  0  0  0  0  0  0  0  0  0  0  0
   -1.1036   -0.7686   -0.8588 N   0  0  0  0  0  0  0  0  0  0  0  0
   -0.9472    1.5375   -0.9410 N   0  0  0  0  0  0  0  0  0  0  0  0
   -3.1293   -2.6534   -0.5047 H   0  0  0  0  0  0  0  0  0  0  0  0
   -2.1894   -2.8574   -1.9638 H   0  0  0  0  0  0  0  0  0  0  0  0
   -5.4376   -2.3452   -0.6074 H   0  0  0  0  0  0  0  0  0  0  0  0
   -5.1121   -2.3249   -5.5112 H   0  0  0  0  0  0  0  0  0  0  0  0
   -3.1692   -2.3297   -4.1272 H   0  0  0  0  0  0  0  0  0  0  0  0
   -0.6380   -1.6153   -0.6956 H   0  0  0  0  0  0  0  0  0  0  0  0
    1.2329   -0.6722    0.2483 H   0  0  0  0  0  0  0  0  0  0  0  0
    3.4172    2.3159    0.6557 H   0  0  0  0  0  0  0  0  0  0  0  0
    3.4654    0.5728    0.5396 H   0  0  0  0  0  0  0  0  0  0  0  0
    2.4331    0.3934    2.7281 H   0  0  0  0  0  0  0  0  0  0  0  0
    2.3673    2.1360    2.8440 H   0  0  0  0  0  0  0  0  0  0  0  0
    4.2311    3.3905    3.3915 H   0  0  0  0  0  0  0  0  0  0  0  0
    6.4856    3.5102    4.2690 H   0  0  0  0  0  0  0  0  0  0  0  0
    7.8527    1.5088    4.3774 H   0  0  0  0  0  0  0  0  0  0  0  0
    6.9710   -0.6046    3.5884 H   0  0  0  0  0  0  0  0  0  0  0  0
    4.7128   -0.7244    2.7095 H   0  0  0  0  0  0  0  0  0  0  0  0
    1.5147    3.5178    0.1059 H   0  0  0  0  0  0  0  0  0  0  0  0
   -0.6526    3.5669   -0.9439 H   0  0  0  0  0  0  0  0  0  0  0  0
  3  4  1  0  0  0  0
  3 26  1  0  0  0  0
  3  1  2  0  0  0  0
  4  5  1  0  0  0  0
  4 28  1  0  0  0  0
  4 29  1  0  0  0  0
  5 10  1  0  0  0  0
  5  6  2  0  0  0  0
  6  7  1  0  0  0  0
  6 30  1  0  0  0  0
  7  8  1  0  0  0  0
  7 24  2  0  0  0  0
  8  9  1  0  0  0  0
  8 25  2  0  0  0  0
  9 31  1  0  0  0  0
  9 10  2  0  0  0  0
 10 32  1  0  0  0  0
 11 26  1  0  0  0  0
 11 27  1  0  0  0  0
 11 12  2  0  0  0  0
 12 13  1  0  0  0  0
 12 34  1  0  0  0  0
 13 14  1  0  0  0  0
 13 22  2  0  0  0  0
 14 15  1  0  0  0  0
 14 35  1  0  0  0  0
 14 36  1  0  0  0  0
 15 16  1  0  0  0  0
 15 37  1  0  0  0  0
 15 38  1  0  0  0  0
 16 21  1  0  0  0  0
 16 17  2  0  0  0  0
 17 18  1  0  0  0  0
 17 39  1  0  0  0  0
 18 40  1  0  0  0  0
 18 19  2  0  0  0  0
 19 20  1  0  0  0  0
 19 41  1  0  0  0  0
 20 42  1  0  0  0  0
 20 21  2  0  0  0  0
 21 43  1  0  0  0  0
 22 23  1  0  0  0  0
 22 44  1  0  0  0  0
 23 45  1  0  0  0  0
 23 27  2  0  0  0  0
 24  2  1  0  0  0  0
 25  2  1  0  0  0  0
 26 33  1  0  0  0  0
M  END
>  <score>
0.41600489616394043

$$$$
PV-004135841977
 OpenBabel08202115463D

 53 54  0  0  0  0  0  0  0  0999 V2000
   -2.3029    1.1577   -1.9033 C   0  0  0  0  0  0  0  0  0  0  0  0
   -0.7518    0.3533   -0.1270 C   0  0  0  0  0  0  0  0  0  0  0  0
    0.4990   -0.3286   -0.6322 C   0  0  0  0  0  0  0  0  0  0  0  0
    2.3530    1.0030    0.1936 C   0  0  0  0  0  0  0  0  0  0  0  0
    3.6202    1.0948    1.0022 C   0  0  1  0  0  0  0  0  0  0  0  0
    4.6046    1.9879    0.2894 C   0  0  0  0  0  0  0  0  0  0  0  0
    5.7835    2.2157    2.4637 C   0  0  0  0  0  0  0  0  0  0  0  0
    4.5745    1.7244    3.2004 C   0  0  0  0  0  0  0  0  0  0  0  0
    4.3216    2.6664    4.3882 C   0  0  0  0  0  0  0  0  0  0  0  0
    4.8745    0.3038    3.7243 C   0  0  0  0  0  0  0  0  0  0  0  0
    3.3045    1.6634    2.3645 C   0  0  0  0  0  0  0  0  0  0  0  0
   -2.7048   -1.0174   -0.8165 C   0  0  0  0  0  0  0  0  0  0  0  0
   -3.7953   -1.1942   -1.8354 C   0  0  0  0  0  0  0  0  0  0  0  0
   -5.6032   -2.8398   -2.4873 C   0  0  0  0  0  0  0  0  0  0  0  0
   -6.1754   -1.9567   -3.3842 C   0  0  0  0  0  0  0  0  0  0  0  0
   -7.2142   -2.3987   -4.1812 C   0  0  0  0  0  0  0  0  0  0  0  0
   -7.1409   -4.4862   -3.2529 C   0  0  0  0  0  0  0  0  0  0  0  0
   -6.0951   -4.1287   -2.4199 C   0  0  0  0  0  0  0  0  0  0  0  0
   -1.9427    0.1244   -0.9414 N   0  0  0  0  0  0  0  0  0  0  0  0
    1.6454   -0.1285    0.2562 N   0  0  0  0  0  0  0  0  0  0  0  0
    5.7636    2.2771    1.1416 N   0  0  0  0  0  0  0  0  0  0  0  0
   -4.5351   -2.4312   -1.6549 N   0  0  0  0  0  0  0  0  0  0  0  0
   -7.7021   -3.6419   -4.1301 N   0  0  0  0  0  0  0  0  0  0  0  0
    2.0322    1.9752   -0.4848 O   0  0  0  0  0  0  0  0  0  0  0  0
    6.7803    2.5570    3.0789 O   0  0  0  0  0  0  0  0  0  0  0  0
   -2.4756   -1.8094    0.0794 O   0  0  0  0  0  0  0  0  0  0  0  0
   -2.7839    0.7084   -2.7469 H   0  0  0  0  0  0  0  0  0  0  0  0
   -1.4193    1.6674   -2.2265 H   0  0  0  0  0  0  0  0  0  0  0  0
   -2.9700    1.8563   -1.4429 H   0  0  0  0  0  0  0  0  0  0  0  0
   -0.9503   -0.0045    0.8616 H   0  0  0  0  0  0  0  0  0  0  0  0
   -0.5673    1.4068   -0.0953 H   0  0  0  0  0  0  0  0  0  0  0  0
    0.7396    0.0671   -1.5967 H   0  0  0  0  0  0  0  0  0  0  0  0
    0.3080   -1.3782   -0.7142 H   0  0  0  0  0  0  0  0  0  0  0  0
    1.8943   -0.8260    0.8980 H   0  0  0  0  0  0  0  0  0  0  0  0
    4.0436    0.1187    1.1147 H   0  0  0  0  0  0  0  0  0  0  0  0
    4.9388    1.4991   -0.6018 H   0  0  0  0  0  0  0  0  0  0  0  0
    4.1209    2.9071    0.0326 H   0  0  0  0  0  0  0  0  0  0  0  0
    6.5948    2.5383    0.6931 H   0  0  0  0  0  0  0  0  0  0  0  0
    4.1357    3.6560    4.0260 H   0  0  0  0  0  0  0  0  0  0  0  0
    5.1813    2.6757    5.0251 H   0  0  0  0  0  0  0  0  0  0  0  0
    3.4717    2.3235    4.9403 H   0  0  0  0  0  0  0  0  0  0  0  0
    5.4214    0.3694    4.6416 H   0  0  0  0  0  0  0  0  0  0  0  0
    5.4558   -0.2278    3.0001 H   0  0  0  0  0  0  0  0  0  0  0  0
    3.9543   -0.2151    3.8943 H   0  0  0  0  0  0  0  0  0  0  0  0
    2.9034    2.6493    2.2543 H   0  0  0  0  0  0  0  0  0  0  0  0
    2.5866    1.0383    2.8532 H   0  0  0  0  0  0  0  0  0  0  0  0
   -3.3552   -1.1978   -2.8107 H   0  0  0  0  0  0  0  0  0  0  0  0
   -4.4764   -0.3730   -1.7539 H   0  0  0  0  0  0  0  0  0  0  0  0
   -4.2790   -3.0173   -0.9124 H   0  0  0  0  0  0  0  0  0  0  0  0
   -5.8305   -0.9784   -3.4577 H   0  0  0  0  0  0  0  0  0  0  0  0
   -7.6380   -1.7297   -4.8553 H   0  0  0  0  0  0  0  0  0  0  0  0
   -7.5093   -5.4571   -3.1956 H   0  0  0  0  0  0  0  0  0  0  0  0
   -5.6873   -4.8175   -1.7559 H   0  0  0  0  0  0  0  0  0  0  0  0
  1 19  1  0  0  0  0
  1 27  1  0  0  0  0
  1 28  1  0  0  0  0
  1 29  1  0  0  0  0
  2 19  1  0  0  0  0
  2  3  1  0  0  0  0
  2 30  1  0  0  0  0
  2 31  1  0  0  0  0
  3 20  1  0  0  0  0
  3 32  1  0  0  0  0
  3 33  1  0  0  0  0
  4 20  1  0  0  0  0
  4  5  1  0  0  0  0
  4 24  2  0  0  0  0
  5  6  1  0  0  0  0
  5 11  1  0  0  0  0
  5 35  1  1  0  0  0
  6 21  1  0  0  0  0
  6 36  1  0  0  0  0
  6 37  1  0  0  0  0
  7 21  1  0  0  0  0
  7  8  1  0  0  0  0
  7 25  2  0  0  0  0
  8  9  1  0  0  0  0
  8 10  1  0  0  0  0
  8 11  1  0  0  0  0
  9 39  1  0  0  0  0
  9 40  1  0  0  0  0
  9 41  1  0  0  0  0
 10 42  1  0  0  0  0
 10 43  1  0  0  0  0
 10 44  1  0  0  0  0
 11 45  1  0  0  0  0
 11 46  1  0  0  0  0
 12 19  1  0  0  0  0
 12 13  1  0  0  0  0
 12 26  2  0  0  0  0
 13 22  1  0  0  0  0
 13 47  1  0  0  0  0
 13 48  1  0  0  0  0
 14 22  1  0  0  0  0
 14 18  1  0  0  0  0
 14 15  2  0  0  0  0
 15 16  1  0  0  0  0
 15 50  1  0  0  0  0
 16 51  1  0  0  0  0
 16 23  2  0  0  0  0
 17 23  1  0  0  0  0
 17 52  1  0  0  0  0
 17 18  2  0  0  0  0
 18 53  1  0  0  0  0
 20 34  1  0  0  0  0
 21 38  1  0  0  0  0
 22 49  1  0  0  0  0
M  END
>  <score>
0.41644793748855591

$$$$
PV-003446835521
 OpenBabel08202115463D

 49 49  0  0  0  0  0  0  0  0999 V2000
   -0.9950    1.9593   -1.4508 C   0  0  0  0  0  0  0  0  0  0  0  0
    1.0041    0.7391   -0.6079 C   0  0  0  0  0  0  0  0  0  0  0  0
    1.2485    0.8172    0.8788 C   0  0  0  0  0  0  0  0  0  0  0  0
    3.3207   -0.3909    1.5741 C   0  0  0  0  0  0  0  0  0  0  0  0
    3.3303    2.0357    1.2957 C   0  0  0  0  0  0  0  0  0  0  0  0
    4.7335    1.9266    2.0034 C   0  0  1  0  0  0  0  0  0  0  0  0
    5.5891    2.9600    1.4147 C   0  0  0  0  0  0  0  0  0  0  0  0
    4.5689    2.0542    3.5205 C   0  0  0  0  0  0  0  0  0  0  0  0
    5.0758    1.0386    4.4956 C   0  0  0  0  0  0  0  0  0  0  0  0
    3.6042    1.1590    4.2333 C   0  0  0  0  0  0  0  0  0  0  0  0
   -1.1215   -0.4028   -0.9344 C   0  0  0  0  0  0  0  0  0  0  0  0
   -2.5051   -0.3839   -1.5253 C   0  0  0  0  0  0  0  0  0  0  0  0
   -3.2621   -1.7017   -1.5859 C   0  0  0  0  0  0  0  0  0  0  0  0
   -4.5603   -1.5418   -2.3588 C   0  0  0  0  0  0  0  0  0  0  0  0
   -5.1961   -2.8654   -2.7483 C   0  0  0  0  0  0  0  0  0  0  0  0
   -6.4464   -2.8328   -3.5798 C   0  0  0  0  0  0  0  0  0  0  0  0
   -0.4002    0.7089   -0.9927 N   0  0  0  0  0  0  0  0  0  0  0  0
    2.6734    0.8624    1.2120 N   0  0  0  0  0  0  0  0  0  0  0  0
    6.2382    3.7470    0.9125 N   0  0  0  0  0  0  0  0  0  0  0  0
    2.9049    3.1068    0.8713 O   0  0  0  0  0  0  0  0  0  0  0  0
   -0.7269   -1.4510   -0.4253 O   0  0  0  0  0  0  0  0  0  0  0  0
   -6.7740   -4.1758   -3.9110 O   0  0  0  0  0  0  0  0  0  0  0  0
   -5.5133   -3.4786   -1.5776 F   0  0  0  0  0  0  0  0  0  0  0  0
   -4.2840   -3.6094   -3.3601 F   0  0  0  0  0  0  0  0  0  0  0  0
   -1.9929    2.0396   -1.0731 H   0  0  0  0  0  0  0  0  0  0  0  0
   -1.0166    1.9729   -2.5205 H   0  0  0  0  0  0  0  0  0  0  0  0
   -0.4118    2.7828   -1.0948 H   0  0  0  0  0  0  0  0  0  0  0  0
    1.4567    1.5940   -1.0653 H   0  0  0  0  0  0  0  0  0  0  0  0
    1.4697   -0.1513   -0.9757 H   0  0  0  0  0  0  0  0  0  0  0  0
    0.8149   -0.0437    1.3433 H   0  0  0  0  0  0  0  0  0  0  0  0
    0.7797    1.7015    1.2573 H   0  0  0  0  0  0  0  0  0  0  0  0
    3.8566   -0.7729    0.7304 H   0  0  0  0  0  0  0  0  0  0  0  0
    2.5793   -1.1006    1.8765 H   0  0  0  0  0  0  0  0  0  0  0  0
    4.0019   -0.2200    2.3814 H   0  0  0  0  0  0  0  0  0  0  0  0
    5.1430    0.9624    1.7857 H   0  0  0  0  0  0  0  0  0  0  0  0
    4.5878    3.0627    3.8773 H   0  0  0  0  0  0  0  0  0  0  0  0
    5.4793    1.3538    5.4351 H   0  0  0  0  0  0  0  0  0  0  0  0
    5.6134    0.1823    4.1452 H   0  0  0  0  0  0  0  0  0  0  0  0
    3.0918    0.3886    3.6957 H   0  0  0  0  0  0  0  0  0  0  0  0
    2.9578    1.5602    4.9856 H   0  0  0  0  0  0  0  0  0  0  0  0
   -2.4205   -0.0168   -2.5268 H   0  0  0  0  0  0  0  0  0  0  0  0
   -3.0922    0.2961   -0.9440 H   0  0  0  0  0  0  0  0  0  0  0  0
   -3.4840   -2.0250   -0.5904 H   0  0  0  0  0  0  0  0  0  0  0  0
   -2.6524   -2.4345   -2.0719 H   0  0  0  0  0  0  0  0  0  0  0  0
   -4.3578   -0.9871   -3.2510 H   0  0  0  0  0  0  0  0  0  0  0  0
   -5.2528   -0.9989   -1.7500 H   0  0  0  0  0  0  0  0  0  0  0  0
   -6.2769   -2.2675   -4.4723 H   0  0  0  0  0  0  0  0  0  0  0  0
   -7.2445   -2.3891   -3.0221 H   0  0  0  0  0  0  0  0  0  0  0  0
   -6.1367   -4.7699   -3.5079 H   0  0  0  0  0  0  0  0  0  0  0  0
  1 17  1  0  0  0  0
  1 25  1  0  0  0  0
  1 26  1  0  0  0  0
  1 27  1  0  0  0  0
  2 17  1  0  0  0  0
  2  3  1  0  0  0  0
  2 28  1  0  0  0  0
  2 29  1  0  0  0  0
  3 18  1  0  0  0  0
  3 30  1  0  0  0  0
  3 31  1  0  0  0  0
  4 18  1  0  0  0  0
  4 32  1  0  0  0  0
  4 33  1  0  0  0  0
  4 34  1  0  0  0  0
  5 18  1  0  0  0  0
  5  6  1  0  0  0  0
  5 20  2  0  0  0  0
  6  7  1  0  0  0  0
  6  8  1  0  0  0  0
  6 35  1  6  0  0  0
  7 19  3  0  0  0  0
  8  9  1  0  0  0  0
  8 10  1  0  0  0  0
  8 36  1  0  0  0  0
  9 10  1  0  0  0  0
  9 37  1  0  0  0  0
  9 38  1  0  0  0  0
 10 39  1  0  0  0  0
 10 40  1  0  0  0  0
 11 17  1  0  0  0  0
 11 12  1  0  0  0  0
 11 21  2  0  0  0  0
 12 13  1  0  0  0  0
 12 41  1  0  0  0  0
 12 42  1  0  0  0  0
 13 14  1  0  0  0  0
 13 43  1  0  0  0  0
 13 44  1  0  0  0  0
 14 15  1  0  0  0  0
 14 45  1  0  0  0  0
 14 46  1  0  0  0  0
 15 23  1  0  0  0  0
 15 24  1  0  0  0  0
 15 16  1  0  0  0  0
 16 22  1  0  0  0  0
 16 47  1  0  0  0  0
 16 48  1  0  0  0  0
 22 49  1  0  0  0  0
M  END
>  <score>
0.41664165258407593

$$$$
Z4294353083
 OpenBabel08202115463D

 43 46  0  0  0  0  0  0  0  0999 V2000
    7.1593    0.8840    3.4544 C   0  0  0  0  0  0  0  0  0  0  0  0
    5.8421    0.9767    2.7210 C   0  0  0  0  0  0  0  0  0  0  0  0
    5.4838    2.1421    2.1417 C   0  0  0  0  0  0  0  0  0  0  0  0
    4.2350    2.2235    1.4869 C   0  0  0  0  0  0  0  0  0  0  0  0
    2.2984    1.5056    0.7582 C   0  0  0  0  0  0  0  0  0  0  0  0
    1.0618    0.6728    0.5439 C   0  0  0  0  0  0  0  0  0  0  0  0
   -0.0942    2.6380   -0.4929 C   0  0  0  0  0  0  0  0  0  0  0  0
   -0.9996    0.3931   -0.5504 C   0  0  0  0  0  0  0  0  0  0  0  0
   -3.0384   -0.1138   -1.3204 C   0  0  0  0  0  0  0  0  0  0  0  0
   -2.5806   -1.3739   -1.1997 C   0  0  0  0  0  0  0  0  0  0  0  0
   -3.3635   -2.6208   -1.5346 C   0  0  0  0  0  0  0  0  0  0  0  0
   -4.8479   -2.2526   -1.6375 C   0  0  2  0  0  0  0  0  0  0  0  0
   -5.6254   -3.4236   -2.2337 C   0  0  0  0  0  0  0  0  0  0  0  0
   -4.9954   -1.0251   -2.5414 C   0  0  0  0  0  0  0  0  0  0  0  0
   -4.4379    0.2061   -1.8237 C   0  0  0  0  0  0  0  0  0  0  0  0
    3.7997   -0.0939    2.0419 C   0  0  0  0  0  0  0  0  0  0  0  0
    4.9985   -0.1655    2.6516 C   0  0  0  0  0  0  0  0  0  0  0  0
    3.6628    3.2254    0.8434 N   0  0  0  0  0  0  0  0  0  0  0  0
    2.4544    2.7508    0.3853 N   0  0  0  0  0  0  0  0  0  0  0  0
    0.0103    1.1997   -0.1478 N   0  0  0  0  0  0  0  0  0  0  0  0
   -2.1499    0.8004   -0.9582 N   0  0  0  0  0  0  0  0  0  0  0  0
    3.4117    1.1061    1.4799 N   0  0  0  0  0  0  0  0  0  0  0  0
    1.0563   -0.4700    1.0129 O   0  0  0  0  0  0  0  0  0  0  0  0
   -5.2102   -3.7246   -3.4635 F   0  0  0  0  0  0  0  0  0  0  0  0
   -6.9315   -3.1652   -2.3177 F   0  0  0  0  0  0  0  0  0  0  0  0
   -5.4957   -4.5305   -1.4994 F   0  0  0  0  0  0  0  0  0  0  0  0
   -0.9315   -1.3143   -0.5909 S   0  0  0  0  0  0  0  0  0  0  0  0
    7.9012    1.4481    2.9288 H   0  0  0  0  0  0  0  0  0  0  0  0
    7.4643   -0.1400    3.5114 H   0  0  0  0  0  0  0  0  0  0  0  0
    7.0456    1.2784    4.4426 H   0  0  0  0  0  0  0  0  0  0  0  0
    6.1169    2.9664    2.1769 H   0  0  0  0  0  0  0  0  0  0  0  0
   -0.9894    2.8064   -1.0544 H   0  0  0  0  0  0  0  0  0  0  0  0
    0.7535    2.9265   -1.0787 H   0  0  0  0  0  0  0  0  0  0  0  0
   -0.1222    3.2189    0.4052 H   0  0  0  0  0  0  0  0  0  0  0  0
   -3.0253   -3.0189   -2.4684 H   0  0  0  0  0  0  0  0  0  0  0  0
   -3.2258   -3.3506   -0.7643 H   0  0  0  0  0  0  0  0  0  0  0  0
   -5.2303   -2.0289   -0.6636 H   0  0  0  0  0  0  0  0  0  0  0  0
   -6.0300   -0.8694   -2.7653 H   0  0  0  0  0  0  0  0  0  0  0  0
   -4.4533   -1.1842   -3.4501 H   0  0  0  0  0  0  0  0  0  0  0  0
   -4.3958    1.0308   -2.5041 H   0  0  0  0  0  0  0  0  0  0  0  0
   -5.0690    0.4570   -0.9969 H   0  0  0  0  0  0  0  0  0  0  0  0
    3.1782   -0.9265    1.9953 H   0  0  0  0  0  0  0  0  0  0  0  0
    5.3094   -1.0632    3.0748 H   0  0  0  0  0  0  0  0  0  0  0  0
  1  2  1  0  0  0  0
  1 28  1  0  0  0  0
  1 29  1  0  0  0  0
  1 30  1  0  0  0  0
  2 17  1  0  0  0  0
  2  3  2  0  0  0  0
  3  4  1  0  0  0  0
  3 31  1  0  0  0  0
  4 22  1  0  0  0  0
  4 18  2  0  0  0  0
  5  6  1  0  0  0  0
  5 22  1  0  0  0  0
  5 19  2  0  0  0  0
  6 20  1  0  0  0  0
  6 23  2  0  0  0  0
  7 20  1  0  0  0  0
  7 32  1  0  0  0  0
  7 33  1  0  0  0  0
  7 34  1  0  0  0  0
  8 20  1  0  0  0  0
  8 27  1  0  0  0  0
  8 21  2  0  0  0  0
  9 21  1  0  0  0  0
  9 15  1  0  0  0  0
  9 10  2  0  0  0  0
 10 11  1  0  0  0  0
 10 27  1  0  0  0  0
 11 12  1  0  0  0  0
 11 35  1  0  0  0  0
 11 36  1  0  0  0  0
 12 13  1  0  0  0  0
 12 14  1  0  0  0  0
 12 37  1  1  0  0  0
 13 24  1  0  0  0  0
 13 25  1  0  0  0  0
 13 26  1  0  0  0  0
 14 15  1  0  0  0  0
 14 38  1  0  0  0  0
 14 39  1  0  0  0  0
 15 40  1  0  0  0  0
 15 41  1  0  0  0  0
 16 22  1  0  0  0  0
 16 42  1  0  0  0  0
 16 17  2  0  0  0  0
 17 43  1  0  0  0  0
 18 19  1  0  0  0  0
M  END
>  <score>
0.41679579019546509

$$$$
PV-003184293341
 OpenBabel08202115463D

 50 52  0  0  0  0  0  0  0  0999 V2000
   -3.4872    0.3319    0.4538 C   0  0  0  0  0  0  0  0  0  0  0  0
   -1.0129    0.0250    0.6127 C   0  0  0  0  0  0  0  0  0  0  0  0
   -0.3716    1.2100   -0.1754 C   0  0  0  0  0  0  0  0  0  0  0  0
    2.1228    1.0363   -0.3075 C   0  0  0  0  0  0  0  0  0  0  0  0
    3.4161    1.5712    0.2431 C   0  0  2  0  0  0  0  0  0  0  0  0
    4.1391    0.5318    1.0623 C   0  0  0  0  0  0  0  0  0  0  0  0
    5.3117    1.0932    1.8483 C   0  0  0  0  0  0  0  0  0  0  0  0
    6.0594    0.0495    2.7098 C   0  0  0  0  0  0  0  0  0  0  0  0
    5.2274    0.5272    3.9194 C   0  0  0  0  0  0  0  0  0  0  0  0
    4.9120    1.8353    3.1488 C   0  0  0  0  0  0  0  0  0  0  0  0
   -1.3100    2.3368   -0.4747 C   0  0  0  0  0  0  0  0  0  0  0  0
   -0.8425    1.4429   -1.5799 C   0  0  0  0  0  0  0  0  0  0  0  0
   -2.3631   -1.3719   -0.8732 C   0  0  0  0  0  0  0  0  0  0  0  0
   -3.7338   -1.6540   -1.4277 C   0  0  0  0  0  0  0  0  0  0  0  0
   -3.7613   -2.8407   -2.3634 C   0  0  0  0  0  0  0  0  0  0  0  0
   -5.6867   -2.5319   -4.0483 C   0  0  0  0  0  0  0  0  0  0  0  0
   -2.2956   -0.3967    0.0469 N   0  0  0  0  0  0  0  0  0  0  0  0
    0.9982    1.5531    0.1900 N   0  0  0  0  0  0  0  0  0  0  0  0
   -5.0770   -3.0457   -2.9720 N   0  0  0  0  0  0  0  0  0  0  0  0
   -6.8439   -3.1535   -4.2193 N   0  0  0  0  0  0  0  0  0  0  0  0
   -6.9230   -4.0636   -3.2124 N   0  0  0  0  0  0  0  0  0  0  0  0
   -5.8741   -4.0097   -2.4544 N   0  0  0  0  0  0  0  0  0  0  0  0
    2.1378    0.1108   -1.1179 O   0  0  0  0  0  0  0  0  0  0  0  0
   -1.3864   -2.0005   -1.2483 O   0  0  0  0  0  0  0  0  0  0  0  0
    3.1612    2.6819    1.0488 F   0  0  0  0  0  0  0  0  0  0  0  0
   -3.2024    1.2631    0.8973 H   0  0  0  0  0  0  0  0  0  0  0  0
   -4.0346   -0.2494    1.1660 H   0  0  0  0  0  0  0  0  0  0  0  0
   -4.1010    0.5180   -0.4027 H   0  0  0  0  0  0  0  0  0  0  0  0
   -0.3389   -0.8058    0.5910 H   0  0  0  0  0  0  0  0  0  0  0  0
   -1.1693    0.3317    1.6258 H   0  0  0  0  0  0  0  0  0  0  0  0
    1.1044    2.2416    0.8792 H   0  0  0  0  0  0  0  0  0  0  0  0
    4.0435    1.8514   -0.5771 H   0  0  0  0  0  0  0  0  0  0  0  0
    4.5053   -0.2262    0.4018 H   0  0  0  0  0  0  0  0  0  0  0  0
    3.4443    0.0997    1.7517 H   0  0  0  0  0  0  0  0  0  0  0  0
    5.9424    1.6583    1.1943 H   0  0  0  0  0  0  0  0  0  0  0  0
    5.8855   -0.9673    2.4253 H   0  0  0  0  0  0  0  0  0  0  0  0
    7.1118    0.2202    2.7997 H   0  0  0  0  0  0  0  0  0  0  0  0
    4.3703   -0.0772    4.1311 H   0  0  0  0  0  0  0  0  0  0  0  0
    5.7944    0.6694    4.8156 H   0  0  0  0  0  0  0  0  0  0  0  0
    5.5415    2.6631    3.4004 H   0  0  0  0  0  0  0  0  0  0  0  0
    3.8872    2.1404    3.1903 H   0  0  0  0  0  0  0  0  0  0  0  0
   -0.9645    3.3482   -0.4229 H   0  0  0  0  0  0  0  0  0  0  0  0
   -2.3259    2.2890   -0.1421 H   0  0  0  0  0  0  0  0  0  0  0  0
   -1.5238    0.7558   -2.0366 H   0  0  0  0  0  0  0  0  0  0  0  0
   -0.1624    1.8150   -2.3174 H   0  0  0  0  0  0  0  0  0  0  0  0
   -4.0689   -0.7903   -1.9632 H   0  0  0  0  0  0  0  0  0  0  0  0
   -4.3981   -1.8483   -0.6117 H   0  0  0  0  0  0  0  0  0  0  0  0
   -3.4984   -3.7188   -1.8114 H   0  0  0  0  0  0  0  0  0  0  0  0
   -3.0448   -2.6803   -3.1418 H   0  0  0  0  0  0  0  0  0  0  0  0
   -5.3132   -1.7706   -4.6503 H   0  0  0  0  0  0  0  0  0  0  0  0
  1 17  1  0  0  0  0
  1 26  1  0  0  0  0
  1 27  1  0  0  0  0
  1 28  1  0  0  0  0
  2 17  1  0  0  0  0
  2  3  1  0  0  0  0
  2 29  1  0  0  0  0
  2 30  1  0  0  0  0
  3 18  1  0  0  0  0
  3 11  1  0  0  0  0
  3 12  1  0  0  0  0
  4 18  1  0  0  0  0
  4  5  1  0  0  0  0
  4 23  2  0  0  0  0
  5 25  1  0  0  0  0
  5  6  1  0  0  0  0
  5 32  1  6  0  0  0
  6  7  1  0  0  0  0
  6 33  1  0  0  0  0
  6 34  1  0  0  0  0
  7  8  1  0  0  0  0
  7 10  1  0  0  0  0
  7 35  1  0  0  0  0
  8  9  1  0  0  0  0
  8 36  1  0  0  0  0
  8 37  1  0  0  0  0
  9 10  1  0  0  0  0
  9 38  1  0  0  0  0
  9 39  1  0  0  0  0
 10 40  1  0  0  0  0
 10 41  1  0  0  0  0
 11 12  1  0  0  0  0
 11 42  1  0  0  0  0
 11 43  1  0  0  0  0
 12 44  1  0  0  0  0
 12 45  1  0  0  0  0
 13 17  1  0  0  0  0
 13 14  1  0  0  0  0
 13 24  2  0  0  0  0
 14 15  1  0  0  0  0
 14 46  1  0  0  0  0
 14 47  1  0  0  0  0
 15 19  1  0  0  0  0
 15 48  1  0  0  0  0
 15 49  1  0  0  0  0
 16 19  1  0  0  0  0
 16 50  1  0  0  0  0
 16 20  2  0  0  0  0
 18 31  1  0  0  0  0
 19 22  1  0  0  0  0
 20 21  1  0  0  0  0
 21 22  2  0  0  0  0
M  END
>  <score>
0.41689050197601318

$$$$
PV-003914520009
 OpenBabel08202115463D

 62 64  0  0  0  0  0  0  0  0999 V2000
   -7.5420   -3.0853   -3.9110 C   0  0  0  0  0  0  0  0  0  0  0  0
   -6.2386   -2.3268   -3.9512 C   0  0  0  0  0  0  0  0  0  0  0  0
   -5.5273   -2.1798   -2.6194 C   0  0  1  0  0  0  0  0  0  0  0  0
   -5.4675   -3.4693   -1.8170 C   0  0  0  0  0  0  0  0  0  0  0  0
   -4.1326   -1.6134   -2.8306 C   0  0  0  0  0  0  0  0  0  0  0  0
   -3.3850   -1.3917   -1.5430 C   0  0  0  0  0  0  0  0  0  0  0  0
   -2.1219    0.0901   -0.0848 C   0  0  1  0  0  0  0  0  0  0  0  0
   -0.5840    0.0613   -0.2861 C   0  0  0  0  0  0  0  0  0  0  0  0
   -0.1355    1.5161    0.0620 C   0  0  1  0  0  0  0  0  0  0  0  0
    1.8783    1.2809    1.4293 C   0  0  0  0  0  0  0  0  0  0  0  0
    3.3211    1.6769    1.6000 C   0  0  0  0  0  0  0  0  0  0  0  0
    4.3364    0.6410    1.0711 C   0  0  0  0  0  0  0  0  0  0  0  0
    5.1611    0.8289    2.3707 C   0  0  0  0  0  0  0  0  0  0  0  0
    6.3363    1.8018    2.2443 C   0  0  0  0  0  0  0  0  0  0  0  0
    5.8708    3.1402    1.6965 C   0  0  0  0  0  0  0  0  0  0  0  0
    5.6364   -0.4554    3.0037 C   0  0  0  0  0  0  0  0  0  0  0  0
    4.5879   -1.5432    3.1404 C   0  0  0  0  0  0  0  0  0  0  0  0
    3.8894    1.4343    3.0173 C   0  0  0  0  0  0  0  0  0  0  0  0
   -0.7905    2.3815   -1.0604 C   0  0  0  0  0  0  0  0  0  0  0  0
   -1.2705    1.3846   -0.2592 C   0  0  2  0  0  0  0  0  0  0  0  0
   -1.1308    1.8483    1.2332 C   0  0  0  0  0  0  0  0  0  0  0  0
   -3.3006   -2.2845   -0.7007 O   0  0  0  0  0  0  0  0  0  0  0  0
    1.3029    0.5882    2.2677 O   0  0  0  0  0  0  0  0  0  0  0  0
   -2.2033    2.3713   -0.7802 O   0  0  0  0  0  0  0  0  0  0  0  0
   -2.8145   -0.1932   -1.3427 N   0  0  0  0  0  0  0  0  0  0  0  0
    1.2806    1.7287    0.3215 N   0  0  0  0  0  0  0  0  0  0  0  0
   -7.8908   -3.2491   -4.9092 H   0  0  0  0  0  0  0  0  0  0  0  0
   -8.2684   -2.5172   -3.3684 H   0  0  0  0  0  0  0  0  0  0  0  0
   -7.3912   -4.0276   -3.4270 H   0  0  0  0  0  0  0  0  0  0  0  0
   -6.4398   -1.3455   -4.3274 H   0  0  0  0  0  0  0  0  0  0  0  0
   -5.5801   -2.8383   -4.6218 H   0  0  0  0  0  0  0  0  0  0  0  0
   -6.0769   -1.4679   -2.0397 H   0  0  0  0  0  0  0  0  0  0  0  0
   -6.4541   -3.8692   -1.7094 H   0  0  0  0  0  0  0  0  0  0  0  0
   -5.0569   -3.2683   -0.8495 H   0  0  0  0  0  0  0  0  0  0  0  0
   -4.8492   -4.1782   -2.3271 H   0  0  0  0  0  0  0  0  0  0  0  0
   -4.2192   -0.6763   -3.3398 H   0  0  0  0  0  0  0  0  0  0  0  0
   -3.5749   -2.2980   -3.4348 H   0  0  0  0  0  0  0  0  0  0  0  0
   -2.8619    0.4936   -2.0402 H   0  0  0  0  0  0  0  0  0  0  0  0
   -2.4204   -0.6224    0.6556 H   0  0  0  0  0  0  0  0  0  0  0  0
   -0.1266   -0.6465    0.3731 H   0  0  0  0  0  0  0  0  0  0  0  0
   -0.3367   -0.1817   -1.2984 H   0  0  0  0  0  0  0  0  0  0  0  0
    1.8144    2.2174   -0.3393 H   0  0  0  0  0  0  0  0  0  0  0  0
    3.4654    2.6697    1.2279 H   0  0  0  0  0  0  0  0  0  0  0  0
    3.9355   -0.3426    0.9418 H   0  0  0  0  0  0  0  0  0  0  0  0
    4.8460    0.9392    0.1787 H   0  0  0  0  0  0  0  0  0  0  0  0
    7.0662    1.3862    1.5815 H   0  0  0  0  0  0  0  0  0  0  0  0
    6.7738    1.9508    3.2093 H   0  0  0  0  0  0  0  0  0  0  0  0
    5.3054    2.9828    0.8018 H   0  0  0  0  0  0  0  0  0  0  0  0
    6.7215    3.7511    1.4777 H   0  0  0  0  0  0  0  0  0  0  0  0
    5.2575    3.6293    2.4242 H   0  0  0  0  0  0  0  0  0  0  0  0
    6.0017   -0.2248    3.9826 H   0  0  0  0  0  0  0  0  0  0  0  0
    6.4356   -0.8413    2.4060 H   0  0  0  0  0  0  0  0  0  0  0  0
    3.8175   -1.2149    3.8064 H   0  0  0  0  0  0  0  0  0  0  0  0
    5.0427   -2.4295    3.5308 H   0  0  0  0  0  0  0  0  0  0  0  0
    4.1640   -1.7523    2.1805 H   0  0  0  0  0  0  0  0  0  0  0  0
    4.0637    2.3268    3.5812 H   0  0  0  0  0  0  0  0  0  0  0  0
    3.3233    0.7440    3.6071 H   0  0  0  0  0  0  0  0  0  0  0  0
   -0.5972    1.9546   -2.0222 H   0  0  0  0  0  0  0  0  0  0  0  0
   -0.4110    3.3815   -1.0306 H   0  0  0  0  0  0  0  0  0  0  0  0
   -0.3457    1.2675   -0.7846 H   0  0  0  0  0  0  0  0  0  0  0  0
   -1.0162    1.1996    2.0764 H   0  0  0  0  0  0  0  0  0  0  0  0
   -1.0724    2.8668    1.5557 H   0  0  0  0  0  0  0  0  0  0  0  0
  1  2  1  0  0  0  0
  1 27  1  0  0  0  0
  1 28  1  0  0  0  0
  1 29  1  0  0  0  0
  2  3  1  0  0  0  0
  2 30  1  0  0  0  0
  2 31  1  0  0  0  0
  3  4  1  0  0  0  0
  3  5  1  0  0  0  0
  3 32  1  1  0  0  0
  4 33  1  0  0  0  0
  4 34  1  0  0  0  0
  4 35  1  0  0  0  0
  5  6  1  0  0  0  0
  5 36  1  0  0  0  0
  5 37  1  0  0  0  0
  6 25  1  0  0  0  0
  6 22  2  0  0  0  0
  7 25  1  0  0  0  0
  7  8  1  0  0  0  0
  7 20  1  0  0  0  0
  7 39  1  1  0  0  0
  8  9  1  0  0  0  0
  8 40  1  0  0  0  0
  8 41  1  0  0  0  0
  9 26  1  1  0  0  0
  9 19  1  0  0  0  0
  9 21  1  0  0  0  0
 10 26  1  0  0  0  0
 10 11  1  0  0  0  0
 10 23  2  0  0  0  0
 11 12  1  0  0  0  0
 11 18  1  0  0  0  0
 11 43  1  0  0  0  0
 12 13  1  0  0  0  0
 12 44  1  0  0  0  0
 12 45  1  0  0  0  0
 13 14  1  0  0  0  0
 13 16  1  0  0  0  0
 13 18  1  0  0  0  0
 14 15  1  0  0  0  0
 14 46  1  0  0  0  0
 14 47  1  0  0  0  0
 15 48  1  0  0  0  0
 15 49  1  0  0  0  0
 15 50  1  0  0  0  0
 16 17  1  0  0  0  0
 16 51  1  0  0  0  0
 16 52  1  0  0  0  0
 17 53  1  0  0  0  0
 17 54  1  0  0  0  0
 17 55  1  0  0  0  0
 18 56  1  0  0  0  0
 18 57  1  0  0  0  0
 19 24  1  0  0  0  0
 19 58  1  0  0  0  0
 19 59  1  0  0  0  0
 20 24  1  0  0  0  0
 20 21  1  0  0  0  0
 20 60  1  6  0  0  0
 21 61  1  0  0  0  0
 21 62  1  0  0  0  0
 25 38  1  0  0  0  0
 26 42  1  0  0  0  0
M  END
>  <score>
0.41692525148391724

$$$$
Z3875113689
 OpenBabel08202115463D

 41 44  0  0  0  0  0  0  0  0999 V2000
    2.1126    3.0802    0.4661 O   0  0  0  0  0  0  0  0  0  0  0  0
    2.3694    1.3512    1.8622 O   0  0  0  0  0  0  0  0  0  0  0  0
    4.8291    0.1650    3.4029 O   0  0  0  0  0  0  0  0  0  0  0  0
   -2.5501   -2.2981   -1.4428 O   0  0  0  0  0  0  0  0  0  0  0  0
    1.7450    2.0004    0.8510 C   0  0  0  0  0  0  0  0  0  0  0  0
    3.5747    1.9908    2.3498 C   0  0  1  0  0  0  0  0  0  0  0  0
    4.0395    1.3036    3.6285 C   0  0  0  0  0  0  0  0  0  0  0  0
    4.6597   -0.4706    2.1759 C   0  0  0  0  0  0  0  0  0  0  0  0
    4.9252    0.4176    0.9808 C   0  0  0  0  0  0  0  0  0  0  0  0
    4.6664    1.8718    1.3168 C   0  0  0  0  0  0  0  0  0  0  0  0
    0.6054    1.2110    0.3289 C   0  0  0  0  0  0  0  0  0  0  0  0
    0.6621   -0.1736    0.3587 C   0  0  0  0  0  0  0  0  0  0  0  0
   -0.3936   -0.9194   -0.1308 C   0  0  0  0  0  0  0  0  0  0  0  0
   -1.5116   -0.2824   -0.6467 C   0  0  0  0  0  0  0  0  0  0  0  0
   -2.6708   -0.9843   -1.1780 C   0  0  0  0  0  0  0  0  0  0  0  0
   -4.5185   -1.6354   -1.9025 C   0  0  0  0  0  0  0  0  0  0  0  0
   -5.9268   -1.6185   -2.4489 C   0  0  0  0  0  0  0  0  0  0  0  0
   -6.6150   -2.8807   -2.8643 C   0  0  0  0  0  0  0  0  0  0  0  0
   -6.2223   -1.8649   -3.8953 C   0  0  0  0  0  0  0  0  0  0  0  0
   -1.5682    1.0982   -0.6765 C   0  0  0  0  0  0  0  0  0  0  0  0
   -0.5093    1.8459   -0.1855 C   0  0  0  0  0  0  0  0  0  0  0  0
    5.8041    2.4258    1.8048 F   0  0  0  0  0  0  0  0  0  0  0  0
    4.2910    2.5259    0.1972 F   0  0  0  0  0  0  0  0  0  0  0  0
   -3.8507   -0.5163   -1.4459 N   0  0  0  0  0  0  0  0  0  0  0  0
   -3.8037   -2.7288   -1.9210 N   0  0  0  0  0  0  0  0  0  0  0  0
    3.3762    3.0235    2.5472 H   0  0  0  0  0  0  0  0  0  0  0  0
    4.6125    2.0042    4.1991 H   0  0  0  0  0  0  0  0  0  0  0  0
    3.1754    1.0099    4.1871 H   0  0  0  0  0  0  0  0  0  0  0  0
    3.6510   -0.8224    2.1159 H   0  0  0  0  0  0  0  0  0  0  0  0
    5.3313   -1.3024    2.1325 H   0  0  0  0  0  0  0  0  0  0  0  0
    5.9460    0.3043    0.6807 H   0  0  0  0  0  0  0  0  0  0  0  0
    4.2821    0.1245    0.1774 H   0  0  0  0  0  0  0  0  0  0  0  0
    1.4991   -0.6514    0.7495 H   0  0  0  0  0  0  0  0  0  0  0  0
   -0.3493   -1.9583   -0.1121 H   0  0  0  0  0  0  0  0  0  0  0  0
   -6.5677   -0.8989   -1.9839 H   0  0  0  0  0  0  0  0  0  0  0  0
   -7.6475   -3.0302   -2.6267 H   0  0  0  0  0  0  0  0  0  0  0  0
   -6.0970   -3.8154   -2.8098 H   0  0  0  0  0  0  0  0  0  0  0  0
   -5.4241   -2.0747   -4.5762 H   0  0  0  0  0  0  0  0  0  0  0  0
   -6.9746   -1.2896   -4.3932 H   0  0  0  0  0  0  0  0  0  0  0  0
   -2.4052    1.5761   -1.0672 H   0  0  0  0  0  0  0  0  0  0  0  0
   -0.5536    2.8848   -0.2042 H   0  0  0  0  0  0  0  0  0  0  0  0
  5  2  1  0  0  0  0
  5 11  1  0  0  0  0
  5  1  2  0  0  0  0
  6  2  1  0  0  0  0
  6  7  1  0  0  0  0
  6 10  1  0  0  0  0
  6 26  1  1  0  0  0
  7  3  1  0  0  0  0
  7 27  1  0  0  0  0
  7 28  1  0  0  0  0
  8  3  1  0  0  0  0
  8  9  1  0  0  0  0
  8 29  1  0  0  0  0
  8 30  1  0  0  0  0
  9 10  1  0  0  0  0
  9 31  1  0  0  0  0
  9 32  1  0  0  0  0
 10 22  1  0  0  0  0
 10 23  1  0  0  0  0
 11 21  1  0  0  0  0
 11 12  2  0  0  0  0
 12 13  1  0  0  0  0
 12 33  1  0  0  0  0
 13 34  1  0  0  0  0
 13 14  2  0  0  0  0
 14 15  1  0  0  0  0
 14 20  1  0  0  0  0
 15  4  1  0  0  0  0
 15 24  2  0  0  0  0
 16 24  1  0  0  0  0
 16 17  1  0  0  0  0
 16 25  2  0  0  0  0
 17 18  1  0  0  0  0
 17 19  1  0  0  0  0
 17 35  1  0  0  0  0
 18 19  1  0  0  0  0
 18 36  1  0  0  0  0
 18 37  1  0  0  0  0
 19 38  1  0  0  0  0
 19 39  1  0  0  0  0
 20 40  1  0  0  0  0
 20 21  2  0  0  0  0
 21 41  1  0  0  0  0
 25  4  1  0  0  0  0
M  END
>  <score>
0.41717791557312012

$$$$
PV-003150226841
 OpenBabel08202115463D

 51 53  0  0  0  0  0  0  0  0999 V2000
   -6.8361   -4.0021   -4.7084 C   0  0  0  0  0  0  0  0  0  0  0  0
   -6.2015   -3.9006   -3.3435 C   0  0  0  0  0  0  0  0  0  0  0  0
   -5.1667   -2.7975   -3.1830 C   0  0  0  0  0  0  0  0  0  0  0  0
   -4.6234   -2.6825   -1.7689 C   0  0  0  0  0  0  0  0  0  0  0  0
   -2.3388   -1.5792   -1.4114 C   0  0  0  0  0  0  0  0  0  0  0  0
   -2.0042   -0.2572   -1.2545 C   0  0  0  0  0  0  0  0  0  0  0  0
   -0.6606    0.3609   -0.9987 C   0  0  0  0  0  0  0  0  0  0  0  0
    0.9342    0.8465    0.6620 C   0  0  1  0  0  0  0  0  0  0  0  0
    0.9564    2.2889    0.1725 C   0  0  0  0  0  0  0  0  0  0  0  0
    2.2543    2.9635    0.5759 C   0  0  0  0  0  0  0  0  0  0  0  0
    2.4809    2.8665    2.0739 C   0  0  0  0  0  0  0  0  0  0  0  0
    3.4912    0.8495    3.1613 C   0  0  0  0  0  0  0  0  0  0  0  0
    4.8409    1.5325    3.1931 C   0  0  0  0  0  0  0  0  0  0  0  0
    4.8625    2.5229    4.2725 C   0  0  0  0  0  0  0  0  0  0  0  0
    5.3105    2.1008    1.7855 C   0  0  0  0  0  0  0  0  0  0  0  0
    6.5367    1.2176    1.9263 C   0  0  0  0  0  0  0  0  0  0  0  0
    6.0768    0.5251    3.2129 C   0  0  0  0  0  0  0  0  0  0  0  0
    1.1955    0.7634    2.1592 C   0  0  0  0  0  0  0  0  0  0  0  0
   -3.6690   -1.5822   -1.6218 N   0  0  0  0  0  0  0  0  0  0  0  0
    2.4405    1.4639    2.4970 N   0  0  0  0  0  0  0  0  0  0  0  0
    4.9236    3.3073    5.0934 N   0  0  0  0  0  0  0  0  0  0  0  0
   -3.1491    0.4780   -1.3719 N   0  0  0  0  0  0  0  0  0  0  0  0
   -4.1583   -0.3253   -1.5932 N   0  0  0  0  0  0  0  0  0  0  0  0
   -0.3427    0.2827    0.3832 O   0  0  0  0  0  0  0  0  0  0  0  0
    3.2914   -0.2243    3.6994 O   0  0  0  0  0  0  0  0  0  0  0  0
    7.5347    1.1006    1.2534 O   0  0  0  0  0  0  0  0  0  0  0  0
   -7.4867   -4.8510   -4.7375 H   0  0  0  0  0  0  0  0  0  0  0  0
   -6.0721   -4.1130   -5.4493 H   0  0  0  0  0  0  0  0  0  0  0  0
   -7.3995   -3.1142   -4.9064 H   0  0  0  0  0  0  0  0  0  0  0  0
   -5.7235   -4.8342   -3.1321 H   0  0  0  0  0  0  0  0  0  0  0  0
   -6.9801   -3.7284   -2.6301 H   0  0  0  0  0  0  0  0  0  0  0  0
   -5.6201   -1.8656   -3.4490 H   0  0  0  0  0  0  0  0  0  0  0  0
   -4.3503   -2.9993   -3.8446 H   0  0  0  0  0  0  0  0  0  0  0  0
   -4.1324   -3.5986   -1.5147 H   0  0  0  0  0  0  0  0  0  0  0  0
   -5.4419   -2.5183   -1.0995 H   0  0  0  0  0  0  0  0  0  0  0  0
   -1.7025   -2.4011   -1.3756 H   0  0  0  0  0  0  0  0  0  0  0  0
   -0.6804    1.3875   -1.2997 H   0  0  0  0  0  0  0  0  0  0  0  0
    0.0828   -0.1624   -1.5629 H   0  0  0  0  0  0  0  0  0  0  0  0
    1.6898    0.2922    0.1457 H   0  0  0  0  0  0  0  0  0  0  0  0
    0.1339    2.8204    0.6038 H   0  0  0  0  0  0  0  0  0  0  0  0
    0.8695    2.3008   -0.8939 H   0  0  0  0  0  0  0  0  0  0  0  0
    2.2131    3.9952    0.2954 H   0  0  0  0  0  0  0  0  0  0  0  0
    3.0672    2.4875    0.0686 H   0  0  0  0  0  0  0  0  0  0  0  0
    1.7151    3.4125    2.5841 H   0  0  0  0  0  0  0  0  0  0  0  0
    3.4370    3.2819    2.3151 H   0  0  0  0  0  0  0  0  0  0  0  0
    4.6703    1.8507    0.9655 H   0  0  0  0  0  0  0  0  0  0  0  0
    5.5144    3.1511    1.7721 H   0  0  0  0  0  0  0  0  0  0  0  0
    5.8182   -0.5071    3.1010 H   0  0  0  0  0  0  0  0  0  0  0  0
    6.7375    0.6394    4.0467 H   0  0  0  0  0  0  0  0  0  0  0  0
    1.2790   -0.2638    2.4466 H   0  0  0  0  0  0  0  0  0  0  0  0
    0.3814    1.2165    2.6854 H   0  0  0  0  0  0  0  0  0  0  0  0
  1  2  1  0  0  0  0
  1 27  1  0  0  0  0
  1 28  1  0  0  0  0
  1 29  1  0  0  0  0
  2  3  1  0  0  0  0
  2 30  1  0  0  0  0
  2 31  1  0  0  0  0
  3  4  1  0  0  0  0
  3 32  1  0  0  0  0
  3 33  1  0  0  0  0
  4 19  1  0  0  0  0
  4 34  1  0  0  0  0
  4 35  1  0  0  0  0
  5 19  1  0  0  0  0
  5 36  1  0  0  0  0
  5  6  2  0  0  0  0
  6  7  1  0  0  0  0
  6 22  1  0  0  0  0
  7 24  1  0  0  0  0
  7 37  1  0  0  0  0
  7 38  1  0  0  0  0
  8 24  1  0  0  0  0
  8  9  1  0  0  0  0
  8 18  1  0  0  0  0
  8 39  1  6  0  0  0
  9 10  1  0  0  0  0
  9 40  1  0  0  0  0
  9 41  1  0  0  0  0
 10 11  1  0  0  0  0
 10 42  1  0  0  0  0
 10 43  1  0  0  0  0
 11 20  1  0  0  0  0
 11 44  1  0  0  0  0
 11 45  1  0  0  0  0
 12 20  1  0  0  0  0
 12 13  1  0  0  0  0
 12 25  2  0  0  0  0
 13 14  1  0  0  0  0
 13 15  1  0  0  0  0
 13 17  1  0  0  0  0
 14 21  3  0  0  0  0
 15 16  1  0  0  0  0
 15 46  1  0  0  0  0
 15 47  1  0  0  0  0
 16 17  1  0  0  0  0
 16 26  2  0  0  0  0
 17 48  1  0  0  0  0
 17 49  1  0  0  0  0
 18 20  1  0  0  0  0
 18 50  1  0  0  0  0
 18 51  1  0  0  0  0
 19 23  1  0  0  0  0
 22 23  2  0  0  0  0
M  END
>  <score>
0.41754692792892456

$$$$
PV-004077747027
 OpenBabel08202115463D

 42 43  0  0  0  0  0  0  0  0999 V2000
   -7.2024   -2.9129   -3.3541 C   0  0  0  0  0  0  0  0  0  0  0  0
   -5.3980   -1.6470   -2.4889 C   0  0  0  0  0  0  0  0  0  0  0  0
   -3.9519   -1.6161   -2.2945 C   0  0  0  0  0  0  0  0  0  0  0  0
   -2.9686   -2.4407   -2.7493 C   0  0  0  0  0  0  0  0  0  0  0  0
   -3.1829   -3.6489   -3.6138 C   0  0  0  0  0  0  0  0  0  0  0  0
   -1.6959   -1.0483   -1.6274 C   0  0  0  0  0  0  0  0  0  0  0  0
   -0.6174    0.6836   -0.2035 C   0  0  0  0  0  0  0  0  0  0  0  0
    0.7436    1.0004    0.2651 C   0  0  0  0  0  0  0  0  0  0  0  0
    2.8587    2.1991    1.6679 C   0  0  0  0  0  0  0  0  0  0  0  0
    4.8835    1.9043    2.7878 C   0  0  0  0  0  0  0  0  0  0  0  0
    5.5223    3.0265    3.5897 C   0  0  0  0  0  0  0  0  0  0  0  0
    5.5203    0.5790    3.1733 C   0  0  0  0  0  0  0  0  0  0  0  0
    3.3880    1.8650    3.0260 C   0  0  0  0  0  0  0  0  0  0  0  0
   -5.7940   -2.7578   -3.1201 O   0  0  0  0  0  0  0  0  0  0  0  0
   -6.1540   -0.7821   -2.1287 O   0  0  0  0  0  0  0  0  0  0  0  0
    0.4271    2.2168    2.5541 O   0  0  0  0  0  0  0  0  0  0  0  0
    0.9607    3.5845    0.5865 O   0  0  0  0  0  0  0  0  0  0  0  0
    5.0328    2.1469    1.3607 O   0  0  0  0  0  0  0  0  0  0  0  0
   -1.6917   -2.1179   -2.3722 N   0  0  0  0  0  0  0  0  0  0  0  0
   -0.5893   -0.4788   -1.0948 N   0  0  0  0  0  0  0  0  0  0  0  0
    3.7639    2.3477    0.7803 N   0  0  0  0  0  0  0  0  0  0  0  0
    1.1390    2.3722    1.3236 S   0  0  0  0  0  0  0  0  0  0  0  0
   -3.2592   -0.3675   -1.3449 S   0  0  0  0  0  0  0  0  0  0  0  0
   -7.7241   -2.8917   -2.4201 H   0  0  0  0  0  0  0  0  0  0  0  0
   -7.3819   -3.8484   -3.8415 H   0  0  0  0  0  0  0  0  0  0  0  0
   -7.5506   -2.1140   -3.9750 H   0  0  0  0  0  0  0  0  0  0  0  0
   -4.1325   -4.0867   -3.3868 H   0  0  0  0  0  0  0  0  0  0  0  0
   -2.4077   -4.3625   -3.4275 H   0  0  0  0  0  0  0  0  0  0  0  0
   -3.1613   -3.3587   -4.6435 H   0  0  0  0  0  0  0  0  0  0  0  0
    0.2822   -0.8670   -1.3187 H   0  0  0  0  0  0  0  0  0  0  0  0
   -1.2396    0.4671    0.6396 H   0  0  0  0  0  0  0  0  0  0  0  0
   -1.0133    1.5250   -0.7329 H   0  0  0  0  0  0  0  0  0  0  0  0
    1.3293    1.1394   -0.6196 H   0  0  0  0  0  0  0  0  0  0  0  0
    1.0816    0.1277    0.7838 H   0  0  0  0  0  0  0  0  0  0  0  0
    6.5873    2.9612    3.5096 H   0  0  0  0  0  0  0  0  0  0  0  0
    5.2361    2.9382    4.6169 H   0  0  0  0  0  0  0  0  0  0  0  0
    5.1933    3.9700    3.2070 H   0  0  0  0  0  0  0  0  0  0  0  0
    5.1196   -0.2014    2.5607 H   0  0  0  0  0  0  0  0  0  0  0  0
    5.3105    0.3685    4.2012 H   0  0  0  0  0  0  0  0  0  0  0  0
    6.5789    0.6371    3.0295 H   0  0  0  0  0  0  0  0  0  0  0  0
    3.0683    0.8939    3.3416 H   0  0  0  0  0  0  0  0  0  0  0  0
    3.0890    2.5926    3.7514 H   0  0  0  0  0  0  0  0  0  0  0  0
  1 14  1  0  0  0  0
  1 24  1  0  0  0  0
  1 25  1  0  0  0  0
  1 26  1  0  0  0  0
  2 14  1  0  0  0  0
  2  3  1  0  0  0  0
  2 15  2  0  0  0  0
  3 23  1  0  0  0  0
  3  4  2  0  0  0  0
  4  5  1  0  0  0  0
  4 19  1  0  0  0  0
  5 27  1  0  0  0  0
  5 28  1  0  0  0  0
  5 29  1  0  0  0  0
  6 20  1  0  0  0  0
  6 23  1  0  0  0  0
  6 19  2  0  0  0  0
  7 20  1  0  0  0  0
  7  8  1  0  0  0  0
  7 31  1  0  0  0  0
  7 32  1  0  0  0  0
  8 33  1  0  0  0  0
  8 34  1  0  0  0  0
  9 13  1  0  0  0  0
  9 21  2  0  0  0  0
 10 18  1  0  0  0  0
 10 11  1  0  0  0  0
 10 12  1  0  0  0  0
 10 13  1  0  0  0  0
 11 35  1  0  0  0  0
 11 36  1  0  0  0  0
 11 37  1  0  0  0  0
 12 38  1  0  0  0  0
 12 39  1  0  0  0  0
 12 40  1  0  0  0  0
 13 41  1  0  0  0  0
 13 42  1  0  0  0  0
 20 30  1  0  0  0  0
 21 18  1  0  0  0  0
 22  8  1  0  0  0  0
 22  9  1  0  0  0  0
 22 16  2  0  0  0  0
 22 17  2  0  0  0  0
M  END
>  <score>
0.41794312000274658

$$$$
PV-003853617722
 OpenBabel08202115463D

 54 55  0  0  0  0  0  0  0  0999 V2000
    5.8167   -0.5845    2.9064 C   0  0  0  0  0  0  0  0  0  0  0  0
    6.4989    0.7611    2.7132 C   0  0  0  0  0  0  0  0  0  0  0  0
    5.5811    1.8962    3.1368 C   0  0  1  0  0  0  0  0  0  0  0  0
    6.2615    3.2382    2.9209 C   0  0  0  0  0  0  0  0  0  0  0  0
    4.2444    1.8247    2.4206 C   0  0  0  0  0  0  0  0  0  0  0  0
    3.0648    1.8367    3.1408 C   0  0  0  0  0  0  0  0  0  0  0  0
    1.8481    1.8663    2.4773 C   0  0  0  0  0  0  0  0  0  0  0  0
    1.8144    1.8784    1.0956 C   0  0  0  0  0  0  0  0  0  0  0  0
    0.5012    1.8065    0.3843 C   0  0  0  0  0  0  0  0  0  0  0  0
    0.8924   -0.5888    0.3829 C   0  0  0  0  0  0  0  0  0  0  0  0
   -1.1066    0.3455   -0.7915 C   0  0  0  0  0  0  0  0  0  0  0  0
   -2.3140   -0.0269    0.0328 C   0  0  0  0  0  0  0  0  0  0  0  0
   -4.1933   -0.9431   -1.3077 C   0  0  0  0  0  0  0  0  0  0  0  0
   -5.5506   -0.6263   -1.9049 C   0  0  0  0  0  0  0  0  0  0  0  0
   -5.9263   -1.5845   -3.0087 C   0  0  0  0  0  0  0  0  0  0  0  0
   -5.8965   -1.3690   -4.3535 C   0  0  0  0  0  0  0  0  0  0  0  0
   -6.5999   -3.3919   -3.9221 C   0  0  0  0  0  0  0  0  0  0  0  0
   -7.1006   -4.7807   -4.1236 C   0  0  0  0  0  0  0  0  0  0  0  0
    2.9975    1.8663    0.3735 C   0  0  0  0  0  0  0  0  0  0  0  0
    4.2107    1.8368    1.0349 C   0  0  0  0  0  0  0  0  0  0  0  0
   -0.1477    2.8325    0.1469 O   0  0  0  0  0  0  0  0  0  0  0  0
   -3.7179   -2.0762   -1.3681 O   0  0  0  0  0  0  0  0  0  0  0  0
    0.0784    0.5787    0.0260 N   0  0  0  0  0  0  0  0  0  0  0  0
   -3.5638    0.0796   -0.7222 N   0  0  0  0  0  0  0  0  0  0  0  0
   -6.3333   -2.5347   -4.9296 N   0  0  0  0  0  0  0  0  0  0  0  0
   -6.3659   -2.8575   -2.7378 N   0  0  0  0  0  0  0  0  0  0  0  0
    6.6149   -1.2479    2.6460 H   0  0  0  0  0  0  0  0  0  0  0  0
    4.9783   -0.6996    2.2517 H   0  0  0  0  0  0  0  0  0  0  0  0
    5.5011   -0.7252    3.9191 H   0  0  0  0  0  0  0  0  0  0  0  0
    6.7518    0.8812    1.6805 H   0  0  0  0  0  0  0  0  0  0  0  0
    7.3899    0.7909    3.3049 H   0  0  0  0  0  0  0  0  0  0  0  0
    5.3951    1.7905    4.1852 H   0  0  0  0  0  0  0  0  0  0  0  0
    5.5711    4.0272    3.1347 H   0  0  0  0  0  0  0  0  0  0  0  0
    6.5855    3.3140    1.9039 H   0  0  0  0  0  0  0  0  0  0  0  0
    7.1068    3.3181    3.5719 H   0  0  0  0  0  0  0  0  0  0  0  0
    3.0901    1.8236    4.1804 H   0  0  0  0  0  0  0  0  0  0  0  0
    0.9605    1.8794    3.0192 H   0  0  0  0  0  0  0  0  0  0  0  0
    0.6002   -0.9463    1.3481 H   0  0  0  0  0  0  0  0  0  0  0  0
    1.9253   -0.3103    0.4035 H   0  0  0  0  0  0  0  0  0  0  0  0
    0.7452   -1.3612   -0.3428 H   0  0  0  0  0  0  0  0  0  0  0  0
   -0.8998   -0.4507   -1.4758 H   0  0  0  0  0  0  0  0  0  0  0  0
   -1.3269    1.2384   -1.3384 H   0  0  0  0  0  0  0  0  0  0  0  0
   -2.3672    0.6271    0.8779 H   0  0  0  0  0  0  0  0  0  0  0  0
   -2.2015   -1.0365    0.3689 H   0  0  0  0  0  0  0  0  0  0  0  0
   -3.9692    0.9681   -0.8043 H   0  0  0  0  0  0  0  0  0  0  0  0
   -5.5282    0.3664   -2.3035 H   0  0  0  0  0  0  0  0  0  0  0  0
   -6.2887   -0.6845   -1.1324 H   0  0  0  0  0  0  0  0  0  0  0  0
   -5.6029   -0.4995   -4.8428 H   0  0  0  0  0  0  0  0  0  0  0  0
   -6.4326   -2.7110   -5.8885 H   0  0  0  0  0  0  0  0  0  0  0  0
   -7.7160   -5.0623   -3.2949 H   0  0  0  0  0  0  0  0  0  0  0  0
   -6.2704   -5.4520   -4.1954 H   0  0  0  0  0  0  0  0  0  0  0  0
   -7.6749   -4.8252   -5.0254 H   0  0  0  0  0  0  0  0  0  0  0  0
    2.9723    1.8794   -0.6661 H   0  0  0  0  0  0  0  0  0  0  0  0
    5.0983    1.8237    0.4929 H   0  0  0  0  0  0  0  0  0  0  0  0
  1  2  1  0  0  0  0
  1 27  1  0  0  0  0
  1 28  1  0  0  0  0
  1 29  1  0  0  0  0
  2  3  1  0  0  0  0
  2 30  1  0  0  0  0
  2 31  1  0  0  0  0
  3  4  1  0  0  0  0
  3  5  1  0  0  0  0
  3 32  1  1  0  0  0
  4 33  1  0  0  0  0
  4 34  1  0  0  0  0
  4 35  1  0  0  0  0
  5 20  1  0  0  0  0
  5  6  2  0  0  0  0
  6  7  1  0  0  0  0
  6 36  1  0  0  0  0
  7 37  1  0  0  0  0
  7  8  2  0  0  0  0
  8  9  1  0  0  0  0
  8 19  1  0  0  0  0
  9 23  1  0  0  0  0
  9 21  2  0  0  0  0
 10 23  1  0  0  0  0
 10 38  1  0  0  0  0
 10 39  1  0  0  0  0
 10 40  1  0  0  0  0
 11 23  1  0  0  0  0
 11 12  1  0  0  0  0
 11 41  1  0  0  0  0
 11 42  1  0  0  0  0
 12 24  1  0  0  0  0
 12 43  1  0  0  0  0
 12 44  1  0  0  0  0
 13 24  1  0  0  0  0
 13 14  1  0  0  0  0
 13 22  2  0  0  0  0
 14 15  1  0  0  0  0
 14 46  1  0  0  0  0
 14 47  1  0  0  0  0
 15 26  1  0  0  0  0
 15 16  2  0  0  0  0
 16 25  1  0  0  0  0
 16 48  1  0  0  0  0
 17 25  1  0  0  0  0
 17 18  1  0  0  0  0
 17 26  2  0  0  0  0
 18 50  1  0  0  0  0
 18 51  1  0  0  0  0
 18 52  1  0  0  0  0
 19 53  1  0  0  0  0
 19 20  2  0  0  0  0
 20 54  1  0  0  0  0
 24 45  1  0  0  0  0
 25 49  1  0  0  0  0
M  END
>  <score>
0.41818183660507202

$$$$
Z3836158493
 OpenBabel08202115463D

 54 55  0  0  0  0  0  0  0  0999 V2000
   -6.1085   -4.0403   -4.3639 C   0  0  0  0  0  0  0  0  0  0  0  0
   -5.7796   -2.7979   -3.5586 C   0  0  0  0  0  0  0  0  0  0  0  0
   -4.8563   -3.0668   -2.3925 C   0  0  0  0  0  0  0  0  0  0  0  0
   -3.6345   -0.9907   -2.0933 C   0  0  0  0  0  0  0  0  0  0  0  0
   -3.4210    0.2429   -1.2551 C   0  0  0  0  0  0  0  0  0  0  0  0
   -1.2831   -0.2817   -0.3219 C   0  0  0  0  0  0  0  0  0  0  0  0
    0.1771    0.1241   -0.1888 C   0  0  0  0  0  0  0  0  0  0  0  0
    0.2944    1.5215    0.3774 C   0  0  0  0  0  0  0  0  0  0  0  0
    2.5321    1.4235    1.4093 C   0  0  0  0  0  0  0  0  0  0  0  0
    3.9151    1.9803    1.4109 C   0  0  0  0  0  0  0  0  0  0  0  0
    4.8775    1.1848    2.2832 C   0  0  1  0  0  0  0  0  0  0  0  0
    6.3136    1.6261    1.9929 C   0  0  0  0  0  0  0  0  0  0  0  0
    4.5492    1.3900    3.7545 C   0  0  0  0  0  0  0  0  0  0  0  0
    4.3073   -0.8974    3.3416 C   0  0  0  0  0  0  0  0  0  0  0  0
    4.7201   -0.3011    2.0211 C   0  0  0  0  0  0  0  0  0  0  0  0
   -0.5226    2.4900   -0.4470 C   0  0  0  0  0  0  0  0  0  0  0  0
   -1.9585    2.0108   -0.5804 C   0  0  0  0  0  0  0  0  0  0  0  0
   -4.5434   -1.8550   -1.6330 N   0  0  0  0  0  0  0  0  0  0  0  0
   -2.0121    0.6695   -1.1545 N   0  0  0  0  0  0  0  0  0  0  0  0
    1.7047    1.9119    0.4621 N   0  0  0  0  0  0  0  0  0  0  0  0
    4.2237    0.0645    4.2490 N   0  0  0  0  0  0  0  0  0  0  0  0
   -3.0078   -1.1719   -3.1242 O   0  0  0  0  0  0  0  0  0  0  0  0
    2.1964    0.6004    2.2015 O   0  0  0  0  0  0  0  0  0  0  0  0
    4.0851   -2.0798    3.5437 O   0  0  0  0  0  0  0  0  0  0  0  0
    7.1920    0.9682    2.7566 F   0  0  0  0  0  0  0  0  0  0  0  0
    6.4608    2.9243    2.2512 F   0  0  0  0  0  0  0  0  0  0  0  0
    6.6533    1.4320    0.7279 F   0  0  0  0  0  0  0  0  0  0  0  0
   -5.2109   -4.4384   -4.7890 H   0  0  0  0  0  0  0  0  0  0  0  0
   -6.7918   -3.7867   -5.1473 H   0  0  0  0  0  0  0  0  0  0  0  0
   -6.5548   -4.7722   -3.7237 H   0  0  0  0  0  0  0  0  0  0  0  0
   -6.6924   -2.3870   -3.1808 H   0  0  0  0  0  0  0  0  0  0  0  0
   -5.3096   -2.0881   -4.2068 H   0  0  0  0  0  0  0  0  0  0  0  0
   -3.9438   -3.4822   -2.7663 H   0  0  0  0  0  0  0  0  0  0  0  0
   -5.3269   -3.7700   -1.7376 H   0  0  0  0  0  0  0  0  0  0  0  0
   -5.0017   -1.6774   -0.7851 H   0  0  0  0  0  0  0  0  0  0  0  0
   -3.7827    0.0444   -0.2678 H   0  0  0  0  0  0  0  0  0  0  0  0
   -3.9839    1.0437   -1.6874 H   0  0  0  0  0  0  0  0  0  0  0  0
   -1.7291   -0.3102    0.6503 H   0  0  0  0  0  0  0  0  0  0  0  0
   -1.3379   -1.2524   -0.7686 H   0  0  0  0  0  0  0  0  0  0  0  0
    0.6385    0.0963   -1.1538 H   0  0  0  0  0  0  0  0  0  0  0  0
    0.6740   -0.5623    0.4646 H   0  0  0  0  0  0  0  0  0  0  0  0
   -0.1126    1.5091    1.3668 H   0  0  0  0  0  0  0  0  0  0  0  0
    2.0590    2.5497   -0.1922 H   0  0  0  0  0  0  0  0  0  0  0  0
    3.8771    2.9857    1.7752 H   0  0  0  0  0  0  0  0  0  0  0  0
    4.2843    1.9780    0.4067 H   0  0  0  0  0  0  0  0  0  0  0  0
    5.3930    1.7904    4.2767 H   0  0  0  0  0  0  0  0  0  0  0  0
    3.7142    2.0496    3.8660 H   0  0  0  0  0  0  0  0  0  0  0  0
    3.9632   -0.1051    5.1785 H   0  0  0  0  0  0  0  0  0  0  0  0
    3.9668   -0.4730    1.2808 H   0  0  0  0  0  0  0  0  0  0  0  0
    5.6466   -0.7236    1.6927 H   0  0  0  0  0  0  0  0  0  0  0  0
   -0.5159    3.4480    0.0295 H   0  0  0  0  0  0  0  0  0  0  0  0
   -0.0890    2.5729   -1.4217 H   0  0  0  0  0  0  0  0  0  0  0  0
   -2.4944    2.6846   -1.2157 H   0  0  0  0  0  0  0  0  0  0  0  0
   -2.4132    1.9950    0.3880 H   0  0  0  0  0  0  0  0  0  0  0  0
  1  2  1  0  0  0  0
  1 28  1  0  0  0  0
  1 29  1  0  0  0  0
  1 30  1  0  0  0  0
  2  3  1  0  0  0  0
  2 31  1  0  0  0  0
  2 32  1  0  0  0  0
  3 18  1  0  0  0  0
  3 33  1  0  0  0  0
  3 34  1  0  0  0  0
  4 18  1  0  0  0  0
  4  5  1  0  0  0  0
  4 22  2  0  0  0  0
  5 19  1  0  0  0  0
  5 36  1  0  0  0  0
  5 37  1  0  0  0  0
  6 19  1  0  0  0  0
  6  7  1  0  0  0  0
  6 38  1  0  0  0  0
  6 39  1  0  0  0  0
  7  8  1  0  0  0  0
  7 40  1  0  0  0  0
  7 41  1  0  0  0  0
  8 20  1  0  0  0  0
  8 16  1  0  0  0  0
  8 42  1  0  0  0  0
  9 20  1  0  0  0  0
  9 10  1  0  0  0  0
  9 23  2  0  0  0  0
 10 44  1  0  0  0  0
 10 45  1  0  0  0  0
 11 10  1  6  0  0  0
 11 12  1  0  0  0  0
 11 13  1  0  0  0  0
 11 15  1  0  0  0  0
 12 25  1  0  0  0  0
 12 26  1  0  0  0  0
 12 27  1  0  0  0  0
 13 21  1  0  0  0  0
 13 46  1  0  0  0  0
 13 47  1  0  0  0  0
 14 21  1  0  0  0  0
 14 15  1  0  0  0  0
 14 24  2  0  0  0  0
 15 49  1  0  0  0  0
 15 50  1  0  0  0  0
 16 17  1  0  0  0  0
 16 51  1  0  0  0  0
 16 52  1  0  0  0  0
 17 19  1  0  0  0  0
 17 53  1  0  0  0  0
 17 54  1  0  0  0  0
 18 35  1  0  0  0  0
 20 43  1  0  0  0  0
 21 48  1  0  0  0  0
M  END
>  <score>
0.4184499979019165

$$$$
Z4228368261
 OpenBabel08202115463D

 47 49  0  0  0  0  0  0  0  0999 V2000
    0.1945    2.0318   -1.0357 O   0  0  0  0  0  0  0  0  0  0  0  0
   -3.7159    0.1434   -3.2532 O   0  0  0  0  0  0  0  0  0  0  0  0
    6.0795   -0.1260    2.2491 O   0  0  0  0  0  0  0  0  0  0  0  0
    0.3454    1.0434   -0.3188 C   0  0  0  0  0  0  0  0  0  0  0  0
   -0.5411   -0.1653   -0.4579 C   0  0  0  0  0  0  0  0  0  0  0  0
   -1.6958    0.0545   -1.4036 C   0  0  0  0  0  0  0  0  0  0  0  0
   -2.6476   -1.1205   -1.5582 C   0  0  0  0  0  0  0  0  0  0  0  0
   -3.7132   -0.8837   -2.5947 C   0  0  0  0  0  0  0  0  0  0  0  0
   -4.7577   -1.9188   -2.8010 C   0  0  0  0  0  0  0  0  0  0  0  0
   -5.8324   -1.6474   -3.6265 C   0  0  0  0  0  0  0  0  0  0  0  0
   -6.8100   -2.6089   -3.8299 C   0  0  0  0  0  0  0  0  0  0  0  0
   -6.7129   -3.8369   -3.2031 C   0  0  0  0  0  0  0  0  0  0  0  0
   -5.6349   -4.1089   -2.3752 C   0  0  0  0  0  0  0  0  0  0  0  0
   -4.6601   -3.1503   -2.1723 C   0  0  0  0  0  0  0  0  0  0  0  0
    2.1837    2.0760    0.9308 C   0  0  1  0  0  0  0  0  0  0  0  0
    1.7690    2.7422    2.2387 C   0  0  0  0  0  0  0  0  0  0  0  0
    2.9593    2.5290    3.1547 C   0  0  0  0  0  0  0  0  0  0  0  0
    5.2240    1.7224    2.9156 C   0  0  0  0  0  0  0  0  0  0  0  0
    6.3652    1.2748    1.9877 C   0  0  0  0  0  0  0  0  0  0  0  0
    5.0265    0.2203    3.1800 C   0  0  0  0  0  0  0  0  0  0  0  0
    3.5928    1.5763    1.1395 C   0  0  0  0  0  0  0  0  0  0  0  0
   -7.9365   -5.0343   -3.4518 Cl  0  0  0  0  0  0  0  0  0  0  0  0
   -5.5660   -5.6660   -1.6246 Cl  0  0  0  0  0  0  0  0  0  0  0  0
    1.2945    0.9646    0.6272 N   0  0  0  0  0  0  0  0  0  0  0  0
    4.0969    2.3941    2.2437 N   0  0  1  0  0  0  0  0  0  0  0  0
   -0.9330   -0.4130    0.5064 H   0  0  0  0  0  0  0  0  0  0  0  0
    0.0485   -0.9798   -0.8238 H   0  0  0  0  0  0  0  0  0  0  0  0
   -1.2929    0.2814   -2.3686 H   0  0  0  0  0  0  0  0  0  0  0  0
   -2.2597    0.8907   -1.0464 H   0  0  0  0  0  0  0  0  0  0  0  0
   -3.1225   -1.3002   -0.6164 H   0  0  0  0  0  0  0  0  0  0  0  0
   -2.0812   -1.9825   -1.8429 H   0  0  0  0  0  0  0  0  0  0  0  0
   -5.9077   -0.7220   -4.0951 H   0  0  0  0  0  0  0  0  0  0  0  0
   -7.6167   -2.4062   -4.4543 H   0  0  0  0  0  0  0  0  0  0  0  0
   -3.8534   -3.3530   -1.5479 H   0  0  0  0  0  0  0  0  0  0  0  0
    1.3921    0.1297    1.1310 H   0  0  0  0  0  0  0  0  0  0  0  0
    2.1565    2.7843    0.1293 H   0  0  0  0  0  0  0  0  0  0  0  0
    0.8926    2.2780    2.6404 H   0  0  0  0  0  0  0  0  0  0  0  0
    1.5849    3.7860    2.0918 H   0  0  0  0  0  0  0  0  0  0  0  0
    2.8340    1.6410    3.7384 H   0  0  0  0  0  0  0  0  0  0  0  0
    3.0921    3.3682    3.8051 H   0  0  0  0  0  0  0  0  0  0  0  0
    5.5276    2.2977    3.7651 H   0  0  0  0  0  0  0  0  0  0  0  0
    6.2264    1.5594    0.9657 H   0  0  0  0  0  0  0  0  0  0  0  0
    7.3349    1.5854    2.3165 H   0  0  0  0  0  0  0  0  0  0  0  0
    4.0620   -0.1438    2.8932 H   0  0  0  0  0  0  0  0  0  0  0  0
    5.2321   -0.0696    4.1892 H   0  0  0  0  0  0  0  0  0  0  0  0
    3.5936    0.5392    1.4028 H   0  0  0  0  0  0  0  0  0  0  0  0
    4.1824    1.7216    0.2585 H   0  0  0  0  0  0  0  0  0  0  0  0
  4  5  1  0  0  0  0
  4 24  1  0  0  0  0
  4  1  2  0  0  0  0
  5  6  1  0  0  0  0
  5 26  1  0  0  0  0
  5 27  1  0  0  0  0
  6  7  1  0  0  0  0
  6 28  1  0  0  0  0
  6 29  1  0  0  0  0
  7  8  1  0  0  0  0
  7 30  1  0  0  0  0
  7 31  1  0  0  0  0
  8  9  1  0  0  0  0
  8  2  2  0  0  0  0
  9 14  1  0  0  0  0
  9 10  2  0  0  0  0
 10 11  1  0  0  0  0
 10 32  1  0  0  0  0
 11 33  1  0  0  0  0
 11 12  2  0  0  0  0
 12 22  1  0  0  0  0
 12 13  1  0  0  0  0
 13 23  1  0  0  0  0
 13 14  2  0  0  0  0
 14 34  1  0  0  0  0
 15 24  1  0  0  0  0
 15 16  1  0  0  0  0
 15 21  1  0  0  0  0
 15 36  1  6  0  0  0
 16 17  1  0  0  0  0
 16 37  1  0  0  0  0
 16 38  1  0  0  0  0
 17 25  1  0  0  0  0
 17 39  1  0  0  0  0
 17 40  1  0  0  0  0
 18 19  1  0  0  0  0
 18 20  1  0  0  0  0
 18 41  1  0  0  0  0
 19  3  1  0  0  0  0
 19 42  1  0  0  0  0
 19 43  1  0  0  0  0
 20  3  1  0  0  0  0
 20 44  1  0  0  0  0
 20 45  1  0  0  0  0
 21 25  1  0  0  0  0
 21 46  1  0  0  0  0
 21 47  1  0  0  0  0
 24 35  1  0  0  0  0
 25 18  1  1  0  0  0
M  END
>  <score>
0.41853511333465576

$$$$
Z3564057267
 OpenBabel08202115463D

 42 44  0  0  0  0  0  0  0  0999 V2000
    6.0433    0.2652    3.3229 C   0  0  0  0  0  0  0  0  0  0  0  0
    5.6225    0.2222    1.8629 C   0  0  0  0  0  0  0  0  0  0  0  0
    6.8201    0.4467    0.9542 C   0  0  0  0  0  0  0  0  0  0  0  0
    4.5131    1.1886    1.6128 C   0  0  0  0  0  0  0  0  0  0  0  0
    3.2568    0.9804    1.0951 C   0  0  0  0  0  0  0  0  0  0  0  0
    2.6471    2.2423    1.0887 C   0  0  0  0  0  0  0  0  0  0  0  0
    1.2613    2.5887    0.6277 C   0  0  0  0  0  0  0  0  0  0  0  0
   -0.7124    1.5215   -0.0671 C   0  0  0  0  0  0  0  0  0  0  0  0
   -1.3888    0.1880   -0.2540 C   0  0  0  0  0  0  0  0  0  0  0  0
   -2.8362    0.3119   -0.7012 C   0  0  0  0  0  0  0  0  0  0  0  0
   -3.4323   -0.9990   -1.1394 C   0  0  0  0  0  0  0  0  0  0  0  0
   -4.9418   -2.2753   -1.9258 C   0  0  0  0  0  0  0  0  0  0  0  0
   -6.2848   -2.6600   -2.4185 C   0  0  0  0  0  0  0  0  0  0  0  0
   -6.6741   -3.9556   -2.5944 C   0  0  0  0  0  0  0  0  0  0  0  0
   -8.4408   -2.3450   -3.1971 C   0  0  0  0  0  0  0  0  0  0  0  0
   -7.3024   -1.7348   -2.7579 C   0  0  0  0  0  0  0  0  0  0  0  0
    0.5540    1.3622    0.3309 O   0  0  0  0  0  0  0  0  0  0  0  0
   -1.2242    2.5890   -0.2460 O   0  0  0  0  0  0  0  0  0  0  0  0
   -4.7452   -0.9898   -1.5067 O   0  0  0  0  0  0  0  0  0  0  0  0
   -2.8781   -2.1491   -1.3108 N   0  0  0  0  0  0  0  0  0  0  0  0
   -3.8774   -2.9933   -1.8241 N   0  0  0  0  0  0  0  0  0  0  0  0
    3.4722    3.1789    1.5658 N   0  0  0  0  0  0  0  0  0  0  0  0
    4.6096    2.5112    1.8877 N   0  0  0  0  0  0  0  0  0  0  0  0
   -8.2813   -4.0533   -3.1872 S   0  0  0  0  0  0  0  0  0  0  0  0
    6.6371    1.1380    3.4979 H   0  0  0  0  0  0  0  0  0  0  0  0
    6.6166   -0.6081    3.5545 H   0  0  0  0  0  0  0  0  0  0  0  0
    5.1726    0.2961    3.9440 H   0  0  0  0  0  0  0  0  0  0  0  0
    5.2466   -0.7597    1.6644 H   0  0  0  0  0  0  0  0  0  0  0  0
    6.5105    0.3799   -0.0678 H   0  0  0  0  0  0  0  0  0  0  0  0
    7.5619   -0.2989    1.1514 H   0  0  0  0  0  0  0  0  0  0  0  0
    7.2311    1.4171    1.1394 H   0  0  0  0  0  0  0  0  0  0  0  0
    2.8467    0.0794    0.7763 H   0  0  0  0  0  0  0  0  0  0  0  0
    1.3153    3.1955   -0.2520 H   0  0  0  0  0  0  0  0  0  0  0  0
    0.7478    3.1232    1.3994 H   0  0  0  0  0  0  0  0  0  0  0  0
   -1.3637   -0.3400    0.6763 H   0  0  0  0  0  0  0  0  0  0  0  0
   -0.8500   -0.3664   -0.9939 H   0  0  0  0  0  0  0  0  0  0  0  0
   -2.8818    0.9979   -1.5211 H   0  0  0  0  0  0  0  0  0  0  0  0
   -3.4135    0.6925    0.1154 H   0  0  0  0  0  0  0  0  0  0  0  0
   -6.0726   -4.7801   -2.3944 H   0  0  0  0  0  0  0  0  0  0  0  0
   -9.2973   -1.8386   -3.4997 H   0  0  0  0  0  0  0  0  0  0  0  0
   -7.1936   -0.7034   -2.6807 H   0  0  0  0  0  0  0  0  0  0  0  0
    5.4048    2.9352    2.2728 H   0  0  0  0  0  0  0  0  0  0  0  0
  1  2  1  0  0  0  0
  1 25  1  0  0  0  0
  1 26  1  0  0  0  0
  1 27  1  0  0  0  0
  2  3  1  0  0  0  0
  2  4  1  0  0  0  0
  2 28  1  0  0  0  0
  3 29  1  0  0  0  0
  3 30  1  0  0  0  0
  3 31  1  0  0  0  0
  4 23  1  0  0  0  0
  4  5  2  0  0  0  0
  5  6  1  0  0  0  0
  5 32  1  0  0  0  0
  6  7  1  0  0  0  0
  6 22  2  0  0  0  0
  7 17  1  0  0  0  0
  7 33  1  0  0  0  0
  7 34  1  0  0  0  0
  8 17  1  0  0  0  0
  8  9  1  0  0  0  0
  8 18  2  0  0  0  0
  9 10  1  0  0  0  0
  9 35  1  0  0  0  0
  9 36  1  0  0  0  0
 10 11  1  0  0  0  0
 10 37  1  0  0  0  0
 10 38  1  0  0  0  0
 11 19  1  0  0  0  0
 11 20  2  0  0  0  0
 12 13  1  0  0  0  0
 12 19  1  0  0  0  0
 12 21  2  0  0  0  0
 13 16  1  0  0  0  0
 13 14  2  0  0  0  0
 14 24  1  0  0  0  0
 14 39  1  0  0  0  0
 15 24  1  0  0  0  0
 15 40  1  0  0  0  0
 15 16  2  0  0  0  0
 16 41  1  0  0  0  0
 20 21  1  0  0  0  0
 22 23  1  0  0  0  0
 23 42  1  0  0  0  0
M  END
>  <score>
0.41899967193603516

$$$$
Z2721133343
 OpenBabel08202115463D

 57 59  0  0  0  0  0  0  0  0999 V2000
   -2.6290    2.0414    0.3487 C   0  0  0  0  0  0  0  0  0  0  0  0
   -1.6612    1.1873   -0.4743 C   0  0  2  0  0  0  0  0  0  0  0  0
    0.6139    0.1931   -0.3640 C   0  0  1  0  0  0  0  0  0  0  0  0
    1.1702    0.9974   -1.5290 C   0  0  0  0  0  0  0  0  0  0  0  0
    2.1561    1.9357   -0.8561 C   0  0  0  0  0  0  0  0  0  0  0  0
    3.8270    1.4087    0.9202 C   0  0  0  0  0  0  0  0  0  0  0  0
    5.2048    0.6926    2.7690 C   0  0  0  0  0  0  0  0  0  0  0  0
    6.3740    0.6505    1.8212 C   0  0  0  0  0  0  0  0  0  0  0  0
    5.2857   -0.4249    3.7712 C   0  0  0  0  0  0  0  0  0  0  0  0
    5.0852    2.0498    3.4167 C   0  0  0  0  0  0  0  0  0  0  0  0
    1.8230   -0.0316    0.5463 C   0  0  2  0  0  0  0  0  0  0  0  0
    1.4069   -0.0441    2.0179 C   0  0  0  0  0  0  0  0  0  0  0  0
   -2.2958   -0.1337   -0.8634 C   0  0  0  0  0  0  0  0  0  0  0  0
   -4.3124   -1.1068   -1.9250 C   0  0  0  0  0  0  0  0  0  0  0  0
   -3.9871   -2.3966   -1.5533 C   0  0  0  0  0  0  0  0  0  0  0  0
   -4.7610   -3.4871   -2.0160 C   0  0  0  0  0  0  0  0  0  0  0  0
   -5.8199   -3.1885   -2.8100 C   0  0  0  0  0  0  0  0  0  0  0  0
   -7.6198   -3.2785   -4.1360 C   0  0  0  0  0  0  0  0  0  0  0  0
   -6.1523   -1.9106   -3.1641 C   0  0  0  0  0  0  0  0  0  0  0  0
   -5.4186   -0.8181   -2.7327 C   0  0  0  0  0  0  0  0  0  0  0  0
   -0.4396    0.9520    0.3414 N   0  0  0  0  0  0  0  0  0  0  0  0
    2.6835    1.1247    0.2509 N   0  0  0  0  0  0  0  0  0  0  0  0
   -3.5064   -0.0495   -1.4775 N   0  0  0  0  0  0  0  0  0  0  0  0
    4.5372    2.3764    0.7019 O   0  0  0  0  0  0  0  0  0  0  0  0
    4.0608    0.4686    1.8565 O   0  0  0  0  0  0  0  0  0  0  0  0
   -1.7359   -1.2042   -0.6302 O   0  0  0  0  0  0  0  0  0  0  0  0
   -6.7239   -4.0765   -3.3729 O   0  0  0  0  0  0  0  0  0  0  0  0
   -7.2800   -1.8993   -3.9477 O   0  0  0  0  0  0  0  0  0  0  0  0
   -3.4703    2.3104   -0.2553 H   0  0  0  0  0  0  0  0  0  0  0  0
   -2.1294    2.9281    0.6791 H   0  0  0  0  0  0  0  0  0  0  0  0
   -2.9638    1.4828    1.1977 H   0  0  0  0  0  0  0  0  0  0  0  0
   -1.3978    1.7226   -1.3625 H   0  0  0  0  0  0  0  0  0  0  0  0
   -0.6961    0.4511    1.1437 H   0  0  0  0  0  0  0  0  0  0  0  0
    0.2154   -0.7403   -0.7031 H   0  0  0  0  0  0  0  0  0  0  0  0
    1.6642    0.3618   -2.2340 H   0  0  0  0  0  0  0  0  0  0  0  0
    0.3949    1.5446   -2.0234 H   0  0  0  0  0  0  0  0  0  0  0  0
    2.9370    2.2202   -1.5300 H   0  0  0  0  0  0  0  0  0  0  0  0
    1.6637    2.8121   -0.4897 H   0  0  0  0  0  0  0  0  0  0  0  0
    7.2099    1.0740    2.3379 H   0  0  0  0  0  0  0  0  0  0  0  0
    6.1564    1.2224    0.9435 H   0  0  0  0  0  0  0  0  0  0  0  0
    6.5868   -0.3610    1.5448 H   0  0  0  0  0  0  0  0  0  0  0  0
    6.1371   -0.2778    4.4024 H   0  0  0  0  0  0  0  0  0  0  0  0
    5.3802   -1.3585    3.2571 H   0  0  0  0  0  0  0  0  0  0  0  0
    4.3973   -0.4338    4.3676 H   0  0  0  0  0  0  0  0  0  0  0  0
    4.2093    2.0765    4.0308 H   0  0  0  0  0  0  0  0  0  0  0  0
    5.0120    2.8013    2.6586 H   0  0  0  0  0  0  0  0  0  0  0  0
    5.9493    2.2341    4.0202 H   0  0  0  0  0  0  0  0  0  0  0  0
    2.3181   -0.9495    0.3073 H   0  0  0  0  0  0  0  0  0  0  0  0
    0.6589   -0.7937    2.1713 H   0  0  0  0  0  0  0  0  0  0  0  0
    1.0117    0.9137    2.2847 H   0  0  0  0  0  0  0  0  0  0  0  0
    2.2592   -0.2612    2.6274 H   0  0  0  0  0  0  0  0  0  0  0  0
   -3.8560    0.8541   -1.6242 H   0  0  0  0  0  0  0  0  0  0  0  0
   -3.1709   -2.5668   -0.9316 H   0  0  0  0  0  0  0  0  0  0  0  0
   -4.5297   -4.4683   -1.7603 H   0  0  0  0  0  0  0  0  0  0  0  0
   -7.5347   -3.5320   -5.1720 H   0  0  0  0  0  0  0  0  0  0  0  0
   -8.6236   -3.4500   -3.8076 H   0  0  0  0  0  0  0  0  0  0  0  0
   -5.6735    0.1561   -2.9927 H   0  0  0  0  0  0  0  0  0  0  0  0
  1  2  1  0  0  0  0
  1 29  1  0  0  0  0
  1 30  1  0  0  0  0
  1 31  1  0  0  0  0
  2 21  1  0  0  0  0
  2 13  1  0  0  0  0
  2 32  1  6  0  0  0
  3 21  1  0  0  0  0
  3  4  1  0  0  0  0
  3 11  1  0  0  0  0
  3 34  1  6  0  0  0
  4  5  1  0  0  0  0
  4 35  1  0  0  0  0
  4 36  1  0  0  0  0
  5 22  1  0  0  0  0
  5 37  1  0  0  0  0
  5 38  1  0  0  0  0
  6 22  1  0  0  0  0
  6 25  1  0  0  0  0
  6 24  2  0  0  0  0
  7 25  1  0  0  0  0
  7  8  1  0  0  0  0
  7  9  1  0  0  0  0
  7 10  1  0  0  0  0
  8 39  1  0  0  0  0
  8 40  1  0  0  0  0
  8 41  1  0  0  0  0
  9 42  1  0  0  0  0
  9 43  1  0  0  0  0
  9 44  1  0  0  0  0
 10 45  1  0  0  0  0
 10 46  1  0  0  0  0
 10 47  1  0  0  0  0
 11 22  1  0  0  0  0
 11 12  1  0  0  0  0
 11 48  1  6  0  0  0
 12 49  1  0  0  0  0
 12 50  1  0  0  0  0
 12 51  1  0  0  0  0
 13 23  1  0  0  0  0
 13 26  2  0  0  0  0
 14 23  1  0  0  0  0
 14 20  1  0  0  0  0
 14 15  2  0  0  0  0
 15 16  1  0  0  0  0
 15 53  1  0  0  0  0
 16 54  1  0  0  0  0
 16 17  2  0  0  0  0
 17 27  1  0  0  0  0
 17 19  1  0  0  0  0
 18 27  1  0  0  0  0
 18 28  1  0  0  0  0
 18 55  1  0  0  0  0
 18 56  1  0  0  0  0
 19 28  1  0  0  0  0
 19 20  2  0  0  0  0
 20 57  1  0  0  0  0
 21 33  1  0  0  0  0
 23 52  1  0  0  0  0
M  END
>  <score>
0.41907185316085815

$$$$
Z4166177625
 OpenBabel08202115463D

 47 50  0  0  0  0  0  0  0  0999 V2000
   -7.2441   -3.9252   -4.8444 C   0  0  0  0  0  0  0  0  0  0  0  0
   -7.4351   -1.5865   -3.9091 C   0  0  0  0  0  0  0  0  0  0  0  0
   -6.5631   -0.7441   -3.2615 C   0  0  0  0  0  0  0  0  0  0  0  0
   -5.3782   -1.4788   -3.1191 C   0  0  0  0  0  0  0  0  0  0  0  0
   -4.0962   -1.0941   -2.4957 C   0  0  0  0  0  0  0  0  0  0  0  0
   -2.6279    0.0591   -1.3417 C   0  0  0  0  0  0  0  0  0  0  0  0
   -2.1672    1.2991   -0.6325 C   0  0  0  0  0  0  0  0  0  0  0  0
    0.2167    1.3929   -0.3533 C   0  0  0  0  0  0  0  0  0  0  0  0
    1.4036    1.1503    0.4278 C   0  0  0  0  0  0  0  0  0  0  0  0
    2.6760    1.3243   -0.0158 C   0  0  0  0  0  0  0  0  0  0  0  0
    3.5394    1.0268    1.1113 C   0  0  0  0  0  0  0  0  0  0  0  0
    2.7194    0.6501    2.1169 C   0  0  0  0  0  0  0  0  0  0  0  0
    3.0385    0.2058    3.4912 C   0  0  0  0  0  0  0  0  0  0  0  0
    4.5354   -0.0989    3.5404 C   0  0  0  0  0  0  0  0  0  0  0  0
    5.2980    1.0477    2.8457 C   0  0  0  0  0  0  0  0  0  0  0  0
    4.9176    2.3331    3.4906 C   0  0  0  0  0  0  0  0  0  0  0  0
    6.8176    0.8113    3.0216 C   0  0  0  0  0  0  0  0  0  0  0  0
    4.9889    1.1361    1.3685 C   0  0  0  0  0  0  0  0  0  0  0  0
   -1.9118   -1.0934   -1.4539 C   0  0  0  0  0  0  0  0  0  0  0  0
   -6.7721   -2.7477   -4.1235 N   0  0  0  0  0  0  0  0  0  0  0  0
   -3.8638    0.0582   -1.9328 N   0  0  0  0  0  0  0  0  0  0  0  0
   -0.9822    1.0742    0.1751 N   0  0  0  0  0  0  0  0  0  0  0  0
   -5.5007   -2.6991   -3.6498 N   0  0  0  0  0  0  0  0  0  0  0  0
    0.2994    1.8833   -1.4841 O   0  0  0  0  0  0  0  0  0  0  0  0
    5.8317    1.2798    0.4981 O   0  0  0  0  0  0  0  0  0  0  0  0
    1.4128    0.7063    1.7387 O   0  0  0  0  0  0  0  0  0  0  0  0
   -2.8177   -2.2471   -2.3421 S   0  0  0  0  0  0  0  0  0  0  0  0
   -6.4379   -4.6189   -4.9621 H   0  0  0  0  0  0  0  0  0  0  0  0
   -7.6056   -3.6321   -5.8078 H   0  0  0  0  0  0  0  0  0  0  0  0
   -8.0348   -4.3881   -4.2918 H   0  0  0  0  0  0  0  0  0  0  0  0
   -8.4158   -1.3731   -4.1821 H   0  0  0  0  0  0  0  0  0  0  0  0
   -6.7440    0.2299   -2.9449 H   0  0  0  0  0  0  0  0  0  0  0  0
   -2.9555    1.6421    0.0045 H   0  0  0  0  0  0  0  0  0  0  0  0
   -1.9463    2.0492   -1.3629 H   0  0  0  0  0  0  0  0  0  0  0  0
   -1.0516    0.7013    1.0788 H   0  0  0  0  0  0  0  0  0  0  0  0
    2.9712    1.6124   -0.9705 H   0  0  0  0  0  0  0  0  0  0  0  0
    2.8005    0.9805    4.1898 H   0  0  0  0  0  0  0  0  0  0  0  0
    2.4788   -0.6744    3.7295 H   0  0  0  0  0  0  0  0  0  0  0  0
    4.8533   -0.1769    4.5591 H   0  0  0  0  0  0  0  0  0  0  0  0
    4.7318   -1.0205    3.0333 H   0  0  0  0  0  0  0  0  0  0  0  0
    4.7400    3.0719    2.7371 H   0  0  0  0  0  0  0  0  0  0  0  0
    5.7110    2.6597    4.1299 H   0  0  0  0  0  0  0  0  0  0  0  0
    4.0281    2.1925    4.0684 H   0  0  0  0  0  0  0  0  0  0  0  0
    7.0642   -0.1798    2.7025 H   0  0  0  0  0  0  0  0  0  0  0  0
    7.0798    0.9294    4.0522 H   0  0  0  0  0  0  0  0  0  0  0  0
    7.3593    1.5207    2.4316 H   0  0  0  0  0  0  0  0  0  0  0  0
   -0.9615   -1.2500   -1.0613 H   0  0  0  0  0  0  0  0  0  0  0  0
  1 20  1  0  0  0  0
  1 28  1  0  0  0  0
  1 29  1  0  0  0  0
  1 30  1  0  0  0  0
  2 20  1  0  0  0  0
  2 31  1  0  0  0  0
  2  3  2  0  0  0  0
  3  4  1  0  0  0  0
  3 32  1  0  0  0  0
  4  5  1  0  0  0  0
  4 23  2  0  0  0  0
  5 27  1  0  0  0  0
  5 21  2  0  0  0  0
  6 21  1  0  0  0  0
  6  7  1  0  0  0  0
  6 19  2  0  0  0  0
  7 22  1  0  0  0  0
  7 33  1  0  0  0  0
  7 34  1  0  0  0  0
  8 22  1  0  0  0  0
  8  9  1  0  0  0  0
  8 24  2  0  0  0  0
  9 26  1  0  0  0  0
  9 10  2  0  0  0  0
 10 11  1  0  0  0  0
 10 36  1  0  0  0  0
 11 18  1  0  0  0  0
 11 12  2  0  0  0  0
 12 13  1  0  0  0  0
 12 26  1  0  0  0  0
 13 14  1  0  0  0  0
 13 37  1  0  0  0  0
 13 38  1  0  0  0  0
 14 15  1  0  0  0  0
 14 39  1  0  0  0  0
 14 40  1  0  0  0  0
 15 16  1  0  0  0  0
 15 17  1  0  0  0  0
 15 18  1  0  0  0  0
 16 41  1  0  0  0  0
 16 42  1  0  0  0  0
 16 43  1  0  0  0  0
 17 44  1  0  0  0  0
 17 45  1  0  0  0  0
 17 46  1  0  0  0  0
 18 25  2  0  0  0  0
 19 27  1  0  0  0  0
 19 47  1  0  0  0  0
 20 23  1  0  0  0  0
 22 35  1  0  0  0  0
M  END
>  <score>
0.42047148942947388

$$$$
PV-004129395826
 OpenBabel08202115463D

 59 61  0  0  0  0  0  0  0  0999 V2000
   -2.3616    1.4407   -0.9152 C   0  0  0  0  0  0  0  0  0  0  0  0
   -1.9975   -0.0100   -0.6209 C   0  0  0  0  0  0  0  0  0  0  0  0
   -2.7419   -0.4880    0.6152 C   0  0  0  0  0  0  0  0  0  0  0  0
   -0.4940   -0.1161   -0.4123 C   0  0  0  0  0  0  0  0  0  0  0  0
    0.0386    0.8504    0.6301 C   0  0  0  0  0  0  0  0  0  0  0  0
    2.1468    1.2476    1.8433 C   0  0  0  0  0  0  0  0  0  0  0  0
    3.5720    0.8150    2.1211 C   0  0  0  0  0  0  0  0  0  0  0  0
    4.5562    1.9934    2.1895 C   0  0  1  0  0  0  0  0  0  0  0  0
    4.4840    2.8212    3.4856 C   0  0  0  0  0  0  0  0  0  0  0  0
    6.0199    2.9100    3.4308 C   0  0  0  0  0  0  0  0  0  0  0  0
    5.9794    1.6184    2.6132 C   0  0  0  0  0  0  0  0  0  0  0  0
    6.2820    0.2650    3.2574 C   0  0  0  0  0  0  0  0  0  0  0  0
    7.6838    0.3779    2.6313 C   0  0  0  0  0  0  0  0  0  0  0  0
    7.0573    1.3060    1.5747 C   0  0  0  0  0  0  0  0  0  0  0  0
   -3.6237   -0.9832   -2.1317 C   0  0  0  0  0  0  0  0  0  0  0  0
   -3.8982   -2.0967   -3.1118 C   0  0  0  0  0  0  0  0  0  0  0  0
   -5.9098   -3.5722   -3.6598 C   0  0  0  0  0  0  0  0  0  0  0  0
   -7.3992   -3.2718   -3.5250 C   0  0  0  0  0  0  0  0  0  0  0  0
   -7.5111   -1.7955   -3.8940 C   0  0  0  0  0  0  0  0  0  0  0  0
   -6.1314   -1.2370   -3.6441 C   0  0  0  0  0  0  0  0  0  0  0  0
    1.4447    0.5614    0.9178 N   0  0  0  0  0  0  0  0  0  0  0  0
   -2.3539   -0.9124   -1.7040 N   0  0  0  0  0  0  0  0  0  0  0  0
   -5.2813   -2.2653   -3.4628 N   0  0  0  0  0  0  0  0  0  0  0  0
    1.6467    2.1969    2.4452 O   0  0  0  0  0  0  0  0  0  0  0  0
   -4.5310   -0.2764   -1.7246 O   0  0  0  0  0  0  0  0  0  0  0  0
   -5.8362   -0.0537   -3.6118 O   0  0  0  0  0  0  0  0  0  0  0  0
   -1.7955    1.7879   -1.7542 H   0  0  0  0  0  0  0  0  0  0  0  0
   -2.1390    2.0445   -0.0604 H   0  0  0  0  0  0  0  0  0  0  0  0
   -3.4061    1.5079   -1.1377 H   0  0  0  0  0  0  0  0  0  0  0  0
   -2.6309    0.2314    1.3994 H   0  0  0  0  0  0  0  0  0  0  0  0
   -2.3390   -1.4269    0.9331 H   0  0  0  0  0  0  0  0  0  0  0  0
   -3.7799   -0.6049    0.3831 H   0  0  0  0  0  0  0  0  0  0  0  0
   -0.0072    0.0870   -1.3433 H   0  0  0  0  0  0  0  0  0  0  0  0
   -0.2644   -1.1132   -0.0993 H   0  0  0  0  0  0  0  0  0  0  0  0
   -0.5334    0.7507    1.5289 H   0  0  0  0  0  0  0  0  0  0  0  0
   -0.0478    1.8509    0.2608 H   0  0  0  0  0  0  0  0  0  0  0  0
    1.8915   -0.1554    0.4208 H   0  0  0  0  0  0  0  0  0  0  0  0
    3.8857    0.1542    1.3403 H   0  0  0  0  0  0  0  0  0  0  0  0
    3.5945    0.2977    3.0575 H   0  0  0  0  0  0  0  0  0  0  0  0
    4.4922    2.5651    1.2874 H   0  0  0  0  0  0  0  0  0  0  0  0
    4.0971    2.2929    4.3318 H   0  0  0  0  0  0  0  0  0  0  0  0
    3.9787    3.7594    3.3886 H   0  0  0  0  0  0  0  0  0  0  0  0
    6.4018    3.7610    2.9067 H   0  0  0  0  0  0  0  0  0  0  0  0
    6.5084    2.8257    4.3791 H   0  0  0  0  0  0  0  0  0  0  0  0
    6.2671    0.2639    4.3273 H   0  0  0  0  0  0  0  0  0  0  0  0
    5.6911   -0.5484    2.8912 H   0  0  0  0  0  0  0  0  0  0  0  0
    8.0756   -0.5395    2.2443 H   0  0  0  0  0  0  0  0  0  0  0  0
    8.4165    0.8435    3.2569 H   0  0  0  0  0  0  0  0  0  0  0  0
    7.6650    2.1406    1.2936 H   0  0  0  0  0  0  0  0  0  0  0  0
    6.7029    0.8100    0.6953 H   0  0  0  0  0  0  0  0  0  0  0  0
   -1.6652   -1.4700   -2.1225 H   0  0  0  0  0  0  0  0  0  0  0  0
   -3.5507   -3.0122   -2.6806 H   0  0  0  0  0  0  0  0  0  0  0  0
   -3.3502   -1.8933   -4.0080 H   0  0  0  0  0  0  0  0  0  0  0  0
   -5.5903   -4.2673   -2.9116 H   0  0  0  0  0  0  0  0  0  0  0  0
   -5.6843   -3.9631   -4.6300 H   0  0  0  0  0  0  0  0  0  0  0  0
   -7.7320   -3.4396   -2.5220 H   0  0  0  0  0  0  0  0  0  0  0  0
   -7.9716   -3.8764   -4.1971 H   0  0  0  0  0  0  0  0  0  0  0  0
   -7.7839   -1.6826   -4.9225 H   0  0  0  0  0  0  0  0  0  0  0  0
   -8.2347   -1.3054   -3.2766 H   0  0  0  0  0  0  0  0  0  0  0  0
  1  2  1  0  0  0  0
  1 27  1  0  0  0  0
  1 28  1  0  0  0  0
  1 29  1  0  0  0  0
  2  3  1  0  0  0  0
  2  4  1  0  0  0  0
  2 22  1  0  0  0  0
  3 30  1  0  0  0  0
  3 31  1  0  0  0  0
  3 32  1  0  0  0  0
  4  5  1  0  0  0  0
  4 33  1  0  0  0  0
  4 34  1  0  0  0  0
  5 21  1  0  0  0  0
  5 35  1  0  0  0  0
  5 36  1  0  0  0  0
  6 21  1  0  0  0  0
  6  7  1  0  0  0  0
  6 24  2  0  0  0  0
  7  8  1  0  0  0  0
  7 38  1  0  0  0  0
  7 39  1  0  0  0  0
  8  9  1  0  0  0  0
  8 11  1  0  0  0  0
  8 40  1  6  0  0  0
  9 10  1  0  0  0  0
  9 41  1  0  0  0  0
  9 42  1  0  0  0  0
 10 11  1  0  0  0  0
 10 43  1  0  0  0  0
 10 44  1  0  0  0  0
 11 12  1  0  0  0  0
 11 14  1  0  0  0  0
 12 13  1  0  0  0  0
 12 45  1  0  0  0  0
 12 46  1  0  0  0  0
 13 14  1  0  0  0  0
 13 47  1  0  0  0  0
 13 48  1  0  0  0  0
 14 49  1  0  0  0  0
 14 50  1  0  0  0  0
 15 22  1  0  0  0  0
 15 16  1  0  0  0  0
 15 25  2  0  0  0  0
 16 23  1  0  0  0  0
 16 52  1  0  0  0  0
 16 53  1  0  0  0  0
 17 23  1  0  0  0  0
 17 18  1  0  0  0  0
 17 54  1  0  0  0  0
 17 55  1  0  0  0  0
 18 19  1  0  0  0  0
 18 56  1  0  0  0  0
 18 57  1  0  0  0  0
 19 20  1  0  0  0  0
 19 58  1  0  0  0  0
 19 59  1  0  0  0  0
 20 23  1  0  0  0  0
 20 26  2  0  0  0  0
 21 37  1  0  0  0  0
 22 51  1  0  0  0  0
M  END
>  <score>
0.42048972845077515

$$$$
Z3574268226
 OpenBabel08202115463D

 44 47  0  0  0  0  0  0  0  0999 V2000
    2.1541    2.5860    0.1922 O   0  0  0  0  0  0  0  0  0  0  0  0
    6.2960    0.4174    3.7779 O   0  0  0  0  0  0  0  0  0  0  0  0
    0.6404    0.9829   -0.3419 O   0  0  0  0  0  0  0  0  0  0  0  0
   -2.3581    2.3055   -1.8698 O   0  0  0  0  0  0  0  0  0  0  0  0
    1.8256    1.4347    0.1846 C   0  0  0  0  0  0  0  0  0  0  0  0
    2.6354    0.2946    0.7398 C   0  0  0  0  0  0  0  0  0  0  0  0
    3.8632    0.7563    1.5138 C   0  0  1  0  0  0  0  0  0  0  0  0
    3.5437    1.5168    2.7972 C   0  0  0  0  0  0  0  0  0  0  0  0
    3.9428    0.2804    3.6376 C   0  0  2  0  0  0  0  0  0  0  0  0
    5.0979    0.4222    4.6107 C   0  0  0  0  0  0  0  0  0  0  0  0
    6.0490   -0.1826    2.5179 C   0  0  0  0  0  0  0  0  0  0  0  0
    4.9456    0.8725    2.6151 C   0  0  1  0  0  0  0  0  0  0  0  0
   -0.1869    2.0440   -0.8440 C   0  0  0  0  0  0  0  0  0  0  0  0
   -1.4474    1.4579   -1.3569 C   0  0  0  0  0  0  0  0  0  0  0  0
   -3.0707    0.3047   -1.9877 C   0  0  0  0  0  0  0  0  0  0  0  0
   -3.9217   -0.8755   -2.2544 C   0  0  0  0  0  0  0  0  0  0  0  0
   -5.1303   -0.7658   -2.9157 C   0  0  0  0  0  0  0  0  0  0  0  0
   -5.8965   -1.8968   -3.1512 C   0  0  0  0  0  0  0  0  0  0  0  0
   -7.2047   -1.7795   -3.8735 C   0  0  0  0  0  0  0  0  0  0  0  0
   -5.4544   -3.1333   -2.7200 C   0  0  0  0  0  0  0  0  0  0  0  0
   -4.2421   -3.2431   -2.0568 C   0  0  0  0  0  0  0  0  0  0  0  0
   -3.4781   -2.1155   -1.8219 C   0  0  0  0  0  0  0  0  0  0  0  0
   -1.8277    0.2181   -1.3926 N   0  0  0  0  0  0  0  0  0  0  0  0
   -3.4435    1.5170   -2.3009 N   0  0  0  0  0  0  0  0  0  0  0  0
   -7.7702   -0.5854   -3.7133 F   0  0  0  0  0  0  0  0  0  0  0  0
   -8.0985   -2.6729   -3.4575 F   0  0  0  0  0  0  0  0  0  0  0  0
   -7.0800   -1.9602   -5.1889 F   0  0  0  0  0  0  0  0  0  0  0  0
    2.9573   -0.3220   -0.0732 H   0  0  0  0  0  0  0  0  0  0  0  0
    2.0134   -0.2766    1.3969 H   0  0  0  0  0  0  0  0  0  0  0  0
    4.5291    1.2712    0.8533 H   0  0  0  0  0  0  0  0  0  0  0  0
    2.5152    1.7956    2.8937 H   0  0  0  0  0  0  0  0  0  0  0  0
    4.1630    2.3737    2.9615 H   0  0  0  0  0  0  0  0  0  0  0  0
    3.1039   -0.2581    4.0316 H   0  0  0  0  0  0  0  0  0  0  0  0
    5.1140   -0.3984    5.2972 H   0  0  0  0  0  0  0  0  0  0  0  0
    5.0212    1.3409    5.1539 H   0  0  0  0  0  0  0  0  0  0  0  0
    6.5288   -1.1379    2.4720 H   0  0  0  0  0  0  0  0  0  0  0  0
    6.4273    0.4449    1.7381 H   0  0  0  0  0  0  0  0  0  0  0  0
    5.3014    1.8635    2.8141 H   0  0  0  0  0  0  0  0  0  0  0  0
    0.3217    2.5539   -1.6354 H   0  0  0  0  0  0  0  0  0  0  0  0
   -0.4049    2.7346   -0.0563 H   0  0  0  0  0  0  0  0  0  0  0  0
   -5.4650    0.1651   -3.2367 H   0  0  0  0  0  0  0  0  0  0  0  0
   -6.0311   -3.9812   -2.8932 H   0  0  0  0  0  0  0  0  0  0  0  0
   -3.9075   -4.1740   -1.7358 H   0  0  0  0  0  0  0  0  0  0  0  0
   -2.5705   -2.1974   -1.3207 H   0  0  0  0  0  0  0  0  0  0  0  0
  5  6  1  0  0  0  0
  5  3  1  0  0  0  0
  5  1  2  0  0  0  0
  6  7  1  0  0  0  0
  6 28  1  0  0  0  0
  6 29  1  0  0  0  0
  7  8  1  0  0  0  0
  7 12  1  0  0  0  0
  7 30  1  6  0  0  0
  8  9  1  0  0  0  0
  8 31  1  0  0  0  0
  8 32  1  0  0  0  0
  9 10  1  0  0  0  0
  9 12  1  0  0  0  0
  9 33  1  6  0  0  0
 10  2  1  0  0  0  0
 10 34  1  0  0  0  0
 10 35  1  0  0  0  0
 11  2  1  0  0  0  0
 11 12  1  0  0  0  0
 11 36  1  0  0  0  0
 11 37  1  0  0  0  0
 12 38  1  1  0  0  0
 13  3  1  0  0  0  0
 13 14  1  0  0  0  0
 13 39  1  0  0  0  0
 13 40  1  0  0  0  0
 14  4  1  0  0  0  0
 14 23  2  0  0  0  0
 15 23  1  0  0  0  0
 15 16  1  0  0  0  0
 15 24  2  0  0  0  0
 16 22  1  0  0  0  0
 16 17  2  0  0  0  0
 17 18  1  0  0  0  0
 17 41  1  0  0  0  0
 18 19  1  0  0  0  0
 18 20  2  0  0  0  0
 19 25  1  0  0  0  0
 19 26  1  0  0  0  0
 19 27  1  0  0  0  0
 20 21  1  0  0  0  0
 20 42  1  0  0  0  0
 21 43  1  0  0  0  0
 21 22  2  0  0  0  0
 22 44  1  0  0  0  0
 24  4  1  0  0  0  0
M  END
>  <score>
0.42064476013183594

$$$$
PV-003406542706
 OpenBabel08202115463D

 51 53  0  0  0  0  0  0  0  0999 V2000
   -7.9240   -1.6394   -4.1278 C   0  0  0  0  0  0  0  0  0  0  0  0
   -6.5689   -1.7493   -3.4697 C   0  0  0  0  0  0  0  0  0  0  0  0
   -6.0962   -3.0173   -3.1693 C   0  0  0  0  0  0  0  0  0  0  0  0
   -4.8640   -3.1698   -2.5619 C   0  0  0  0  0  0  0  0  0  0  0  0
   -4.0987   -2.0547   -2.2579 C   0  0  0  0  0  0  0  0  0  0  0  0
   -4.5698   -0.7904   -2.5574 C   0  0  0  0  0  0  0  0  0  0  0  0
   -3.7383    0.4056   -2.2198 C   0  0  0  0  0  0  0  0  0  0  0  0
   -1.6744    1.2283   -1.1981 C   0  0  0  0  0  0  0  0  0  0  0  0
   -0.4735    0.7589   -0.4155 C   0  0  0  0  0  0  0  0  0  0  0  0
    1.6033    1.3279    0.8108 C   0  0  1  0  0  0  0  0  0  0  0  0
    2.0612   -0.1554    0.9022 C   0  0  0  0  0  0  0  0  0  0  0  0
    2.7919    0.3720    2.1729 C   0  0  2  0  0  0  0  0  0  0  0  0
    1.5578    1.2812    2.3604 C   0  0  0  0  0  0  0  0  0  0  0  0
    5.0391    1.4799    1.8354 C   0  0  0  0  0  0  0  0  0  0  0  0
    5.6734    0.5576    2.8995 C   0  0  0  0  0  0  0  0  0  0  0  0
    5.5293   -0.8847    2.3743 C   0  0  0  0  0  0  0  0  0  0  0  0
    5.0627    0.8178    4.3781 C   0  0  0  0  0  0  0  0  0  0  0  0
    2.9230    2.0580    0.5679 C   0  0  0  0  0  0  0  0  0  0  0  0
   -5.8055   -0.6377   -3.1665 C   0  0  0  0  0  0  0  0  0  0  0  0
   -4.1640    1.5483   -2.4175 O   0  0  0  0  0  0  0  0  0  0  0  0
   -0.2889   -0.4384   -0.2007 O   0  0  0  0  0  0  0  0  0  0  0  0
    5.7112    2.3347    1.2599 O   0  0  0  0  0  0  0  0  0  0  0  0
    7.0754    0.8429    2.9742 O   0  0  0  0  0  0  0  0  0  0  0  0
   -2.5307    0.1646   -1.7014 N   0  0  0  0  0  0  0  0  0  0  0  0
    0.3855    1.6853    0.0382 N   0  0  0  0  0  0  0  0  0  0  0  0
    3.7336    1.3204    1.5582 N   0  0  0  0  0  0  0  0  0  0  0  0
   -8.2664   -2.6144   -4.4053 H   0  0  0  0  0  0  0  0  0  0  0  0
   -7.8472   -1.0266   -5.0015 H   0  0  0  0  0  0  0  0  0  0  0  0
   -8.6183   -1.1994   -3.4428 H   0  0  0  0  0  0  0  0  0  0  0  0
   -6.6687   -3.8541   -3.4010 H   0  0  0  0  0  0  0  0  0  0  0  0
   -4.5112   -4.1209   -2.3329 H   0  0  0  0  0  0  0  0  0  0  0  0
   -3.1698   -2.1695   -1.8045 H   0  0  0  0  0  0  0  0  0  0  0  0
   -2.2105   -0.7606   -1.6586 H   0  0  0  0  0  0  0  0  0  0  0  0
   -2.2625    1.8548   -0.5606 H   0  0  0  0  0  0  0  0  0  0  0  0
   -1.3248    1.7972   -2.0341 H   0  0  0  0  0  0  0  0  0  0  0  0
    0.2031    2.6303   -0.1465 H   0  0  0  0  0  0  0  0  0  0  0  0
    1.2858   -0.8723    1.0748 H   0  0  0  0  0  0  0  0  0  0  0  0
    2.6936   -0.4972    0.1096 H   0  0  0  0  0  0  0  0  0  0  0  0
    3.0887   -0.3073    2.9446 H   0  0  0  0  0  0  0  0  0  0  0  0
    0.6956    0.8107    2.7849 H   0  0  0  0  0  0  0  0  0  0  0  0
    1.7384    2.2112    2.8577 H   0  0  0  0  0  0  0  0  0  0  0  0
    6.0432   -1.5565    3.0297 H   0  0  0  0  0  0  0  0  0  0  0  0
    5.9517   -0.9508    1.3935 H   0  0  0  0  0  0  0  0  0  0  0  0
    4.4929   -1.1480    2.3353 H   0  0  0  0  0  0  0  0  0  0  0  0
    5.3799    0.0375    5.0379 H   0  0  0  0  0  0  0  0  0  0  0  0
    3.9940    0.8277    4.3256 H   0  0  0  0  0  0  0  0  0  0  0  0
    5.4109    1.7599    4.7468 H   0  0  0  0  0  0  0  0  0  0  0  0
    7.5668    0.1573    2.5159 H   0  0  0  0  0  0  0  0  0  0  0  0
    2.8580    3.1025    0.7912 H   0  0  0  0  0  0  0  0  0  0  0  0
    3.2828    1.9281   -0.4313 H   0  0  0  0  0  0  0  0  0  0  0  0
   -6.1583    0.3135   -3.3955 H   0  0  0  0  0  0  0  0  0  0  0  0
  1  2  1  0  0  0  0
  1 27  1  0  0  0  0
  1 28  1  0  0  0  0
  1 29  1  0  0  0  0
  2 19  1  0  0  0  0
  2  3  2  0  0  0  0
  3  4  1  0  0  0  0
  3 30  1  0  0  0  0
  4 31  1  0  0  0  0
  4  5  2  0  0  0  0
  5  6  1  0  0  0  0
  5 32  1  0  0  0  0
  6  7  1  0  0  0  0
  6 19  2  0  0  0  0
  7 24  1  0  0  0  0
  7 20  2  0  0  0  0
  8 24  1  0  0  0  0
  8  9  1  0  0  0  0
  8 34  1  0  0  0  0
  8 35  1  0  0  0  0
  9 25  1  0  0  0  0
  9 21  2  0  0  0  0
 10 25  1  6  0  0  0
 10 11  1  0  0  0  0
 10 13  1  0  0  0  0
 10 18  1  0  0  0  0
 11 12  1  0  0  0  0
 11 37  1  0  0  0  0
 11 38  1  0  0  0  0
 12 13  1  0  0  0  0
 12 26  1  0  0  0  0
 12 39  1  1  0  0  0
 13 40  1  0  0  0  0
 13 41  1  0  0  0  0
 14 26  1  0  0  0  0
 14 15  1  0  0  0  0
 14 22  2  0  0  0  0
 15 16  1  0  0  0  0
 15 17  1  0  0  0  0
 15 23  1  0  0  0  0
 16 42  1  0  0  0  0
 16 43  1  0  0  0  0
 16 44  1  0  0  0  0
 17 45  1  0  0  0  0
 17 46  1  0  0  0  0
 17 47  1  0  0  0  0
 18 26  1  0  0  0  0
 18 49  1  0  0  0  0
 18 50  1  0  0  0  0
 19 51  1  0  0  0  0
 23 48  1  0  0  0  0
 24 33  1  0  0  0  0
 25 36  1  0  0  0  0
M  END
>  <score>
0.42067945003509521

$$$$
PV-004008230895
 OpenBabel08202115463D

 58 59  0  0  0  0  0  0  0  0999 V2000
   -7.0884   -4.4031   -2.6948 C   0  0  0  0  0  0  0  0  0  0  0  0
   -6.3929   -3.0517   -2.7145 C   0  0  0  0  0  0  0  0  0  0  0  0
   -4.9286   -3.0023   -2.2700 C   0  0  0  0  0  0  0  0  0  0  0  0
   -5.0041   -0.5586   -2.7420 C   0  0  0  0  0  0  0  0  0  0  0  0
   -3.9518    0.5197   -2.4760 C   0  0  0  0  0  0  0  0  0  0  0  0
   -2.6262   -0.2156   -2.6022 C   0  0  1  0  0  0  0  0  0  0  0  0
   -1.5263    0.5114   -1.8526 C   0  0  0  0  0  0  0  0  0  0  0  0
   -1.8987    0.8546   -0.4204 C   0  0  0  0  0  0  0  0  0  0  0  0
    0.2057    1.1540    0.8042 C   0  0  0  0  0  0  0  0  0  0  0  0
    1.1174    2.1353    1.5149 C   0  0  0  0  0  0  0  0  0  0  0  0
    2.5650    1.7584    1.3195 C   0  0  0  0  0  0  0  0  0  0  0  0
    3.5708    2.6152    2.0692 C   0  0  0  0  0  0  0  0  0  0  0  0
    4.9851    2.1039    1.8481 C   0  0  1  0  0  0  0  0  0  0  0  0
    5.9960    3.1248    2.3441 C   0  0  0  0  0  0  0  0  0  0  0  0
    5.2428    0.7514    2.4877 C   0  0  0  0  0  0  0  0  0  0  0  0
    5.6195   -0.3270    1.7024 C   0  0  0  0  0  0  0  0  0  0  0  0
    5.8488   -1.5594    2.2845 C   0  0  0  0  0  0  0  0  0  0  0  0
    5.7073   -1.7157    3.6545 C   0  0  0  0  0  0  0  0  0  0  0  0
    5.3317   -0.6406    4.4377 C   0  0  0  0  0  0  0  0  0  0  0  0
    5.1017    0.5954    3.8537 C   0  0  0  0  0  0  0  0  0  0  0  0
   -2.9211   -1.5626   -1.9667 C   0  0  0  0  0  0  0  0  0  0  0  0
   -4.4060   -4.0529   -1.9001 O   0  0  0  0  0  0  0  0  0  0  0  0
   -2.2495   -0.3661   -3.9771 O   0  0  0  0  0  0  0  0  0  0  0  0
    0.4708   -0.0465    0.7596 O   0  0  0  0  0  0  0  0  0  0  0  0
   -4.3283   -1.7963   -2.3223 N   0  0  0  0  0  0  0  0  0  0  0  0
   -0.8860    1.6794    0.2409 N   0  0  0  0  0  0  0  0  0  0  0  0
   -6.5298   -5.1009   -3.2829 H   0  0  0  0  0  0  0  0  0  0  0  0
   -8.0734   -4.3030   -3.1006 H   0  0  0  0  0  0  0  0  0  0  0  0
   -7.1516   -4.7566   -1.6868 H   0  0  0  0  0  0  0  0  0  0  0  0
   -6.9448   -2.3981   -2.0717 H   0  0  0  0  0  0  0  0  0  0  0  0
   -6.4352   -2.6845   -3.7187 H   0  0  0  0  0  0  0  0  0  0  0  0
   -5.2624   -0.5952   -3.7798 H   0  0  0  0  0  0  0  0  0  0  0  0
   -5.8856   -0.3864   -2.1605 H   0  0  0  0  0  0  0  0  0  0  0  0
   -4.0671    0.9286   -1.4939 H   0  0  0  0  0  0  0  0  0  0  0  0
   -4.0210    1.3045   -3.2000 H   0  0  0  0  0  0  0  0  0  0  0  0
   -2.0636    0.4967   -4.3547 H   0  0  0  0  0  0  0  0  0  0  0  0
   -1.3047    1.4199   -2.3726 H   0  0  0  0  0  0  0  0  0  0  0  0
   -0.6570   -0.1123   -1.8370 H   0  0  0  0  0  0  0  0  0  0  0  0
   -2.0139   -0.0550    0.1313 H   0  0  0  0  0  0  0  0  0  0  0  0
   -2.8258    1.3888   -0.4258 H   0  0  0  0  0  0  0  0  0  0  0  0
   -1.0132    2.6506    0.2715 H   0  0  0  0  0  0  0  0  0  0  0  0
    0.8916    2.1298    2.5608 H   0  0  0  0  0  0  0  0  0  0  0  0
    0.9538    3.1159    1.1193 H   0  0  0  0  0  0  0  0  0  0  0  0
    2.7858    1.8289    0.2749 H   0  0  0  0  0  0  0  0  0  0  0  0
    2.6885    0.7460    1.6431 H   0  0  0  0  0  0  0  0  0  0  0  0
    3.3466    2.5855    3.1150 H   0  0  0  0  0  0  0  0  0  0  0  0
    3.5035    3.6237    1.7180 H   0  0  0  0  0  0  0  0  0  0  0  0
    5.1276    1.9948    0.7932 H   0  0  0  0  0  0  0  0  0  0  0  0
    6.9867    2.7641    2.1619 H   0  0  0  0  0  0  0  0  0  0  0  0
    5.8605    3.2794    3.3942 H   0  0  0  0  0  0  0  0  0  0  0  0
    5.8524    4.0497    1.8256 H   0  0  0  0  0  0  0  0  0  0  0  0
    5.7295   -0.2087    0.6750 H   0  0  0  0  0  0  0  0  0  0  0  0
    6.1275   -2.3693    1.6947 H   0  0  0  0  0  0  0  0  0  0  0  0
    5.8837   -2.6420    4.0931 H   0  0  0  0  0  0  0  0  0  0  0  0
    5.2216   -0.7589    5.4651 H   0  0  0  0  0  0  0  0  0  0  0  0
    4.8230    1.4054    4.4435 H   0  0  0  0  0  0  0  0  0  0  0  0
   -2.2904   -2.3255   -2.3730 H   0  0  0  0  0  0  0  0  0  0  0  0
   -2.7947   -1.5225   -0.9050 H   0  0  0  0  0  0  0  0  0  0  0  0
  1  2  1  0  0  0  0
  1 27  1  0  0  0  0
  1 28  1  0  0  0  0
  1 29  1  0  0  0  0
  2  3  1  0  0  0  0
  2 30  1  0  0  0  0
  2 31  1  0  0  0  0
  3 25  1  0  0  0  0
  3 22  2  0  0  0  0
  4 25  1  0  0  0  0
  4  5  1  0  0  0  0
  4 32  1  0  0  0  0
  4 33  1  0  0  0  0
  5  6  1  0  0  0  0
  5 34  1  0  0  0  0
  5 35  1  0  0  0  0
  6 23  1  6  0  0  0
  6  7  1  0  0  0  0
  6 21  1  0  0  0  0
  7  8  1  0  0  0  0
  7 37  1  0  0  0  0
  7 38  1  0  0  0  0
  8 26  1  0  0  0  0
  8 39  1  0  0  0  0
  8 40  1  0  0  0  0
  9 26  1  0  0  0  0
  9 10  1  0  0  0  0
  9 24  2  0  0  0  0
 10 11  1  0  0  0  0
 10 42  1  0  0  0  0
 10 43  1  0  0  0  0
 11 12  1  0  0  0  0
 11 44  1  0  0  0  0
 11 45  1  0  0  0  0
 12 13  1  0  0  0  0
 12 46  1  0  0  0  0
 12 47  1  0  0  0  0
 13 14  1  0  0  0  0
 13 15  1  0  0  0  0
 13 48  1  6  0  0  0
 14 49  1  0  0  0  0
 14 50  1  0  0  0  0
 14 51  1  0  0  0  0
 15 20  1  0  0  0  0
 15 16  2  0  0  0  0
 16 17  1  0  0  0  0
 16 52  1  0  0  0  0
 17 53  1  0  0  0  0
 17 18  2  0  0  0  0
 18 19  1  0  0  0  0
 18 54  1  0  0  0  0
 19 55  1  0  0  0  0
 19 20  2  0  0  0  0
 20 56  1  0  0  0  0
 21 25  1  0  0  0  0
 21 57  1  0  0  0  0
 21 58  1  0  0  0  0
 23 36  1  0  0  0  0
 26 41  1  0  0  0  0
M  END
>  <score>
0.4207419753074646

$$$$
PV-003856290739
 OpenBabel08202115463D

 47 48  0  0  0  0  0  0  0  0999 V2000
    6.6442    1.4115    1.8675 C   0  0  0  0  0  0  0  0  0  0  0  0
    5.3049    1.8959    2.4164 C   0  0  0  0  0  0  0  0  0  0  0  0
    5.1998    3.4035    2.1730 C   0  0  0  0  0  0  0  0  0  0  0  0
    4.6928    1.3140    3.6516 C   0  0  2  0  0  0  0  0  0  0  0  0
    5.4662    0.4181    4.5151 C   0  0  0  0  0  0  0  0  0  0  0  0
    4.0721    1.0481    2.3160 C   0  0  1  0  0  0  0  0  0  0  0  0
    2.7362    1.5505    1.8207 C   0  0  0  0  0  0  0  0  0  0  0  0
    0.6429    1.0723    0.6390 C   0  0  0  0  0  0  0  0  0  0  0  0
   -0.0449   -0.0618   -0.0887 C   0  0  2  0  0  0  0  0  0  0  0  0
   -1.3475    0.3835   -0.7129 C   0  0  0  0  0  0  0  0  0  0  0  0
   -3.2066   -0.5220   -2.0508 C   0  0  0  0  0  0  0  0  0  0  0  0
   -3.7112   -1.7537   -2.7537 C   0  0  0  0  0  0  0  0  0  0  0  0
   -5.1645   -1.6242   -3.2230 C   0  0  0  0  0  0  0  0  0  0  0  0
   -6.2006   -1.5199   -2.0801 C   0  0  0  0  0  0  0  0  0  0  0  0
   -6.4648   -3.0404   -2.2218 C   0  0  0  0  0  0  0  0  0  0  0  0
   -5.8264   -2.9575   -3.6326 C   0  0  0  0  0  0  0  0  0  0  0  0
    6.0726   -0.3079    5.1462 N   0  0  0  0  0  0  0  0  0  0  0  0
    1.9819    0.7181    1.0857 N   0  0  0  0  0  0  0  0  0  0  0  0
   -2.0039   -0.6866   -1.4661 N   0  0  0  0  0  0  0  0  0  0  0  0
    2.3532    2.6896    2.0845 O   0  0  0  0  0  0  0  0  0  0  0  0
   -0.2422   -1.1689    0.7906 O   0  0  0  0  0  0  0  0  0  0  0  0
   -3.8576    0.5218   -2.0314 O   0  0  0  0  0  0  0  0  0  0  0  0
   -7.8291   -3.4026   -2.2149 F   0  0  0  0  0  0  0  0  0  0  0  0
   -5.8238   -3.7726   -1.3890 F   0  0  0  0  0  0  0  0  0  0  0  0
    6.5878    0.3630    1.6619 H   0  0  0  0  0  0  0  0  0  0  0  0
    7.4120    1.5921    2.5906 H   0  0  0  0  0  0  0  0  0  0  0  0
    6.8718    1.9399    0.9654 H   0  0  0  0  0  0  0  0  0  0  0  0
    5.6241    3.8596    3.0430 H   0  0  0  0  0  0  0  0  0  0  0  0
    4.1764    3.6943    2.0588 H   0  0  0  0  0  0  0  0  0  0  0  0
    5.7498    3.6812    1.2982 H   0  0  0  0  0  0  0  0  0  0  0  0
    4.1435    2.0472    4.2044 H   0  0  0  0  0  0  0  0  0  0  0  0
    4.2875    0.0628    1.9585 H   0  0  0  0  0  0  0  0  0  0  0  0
    2.3455   -0.1585    0.8415 H   0  0  0  0  0  0  0  0  0  0  0  0
    0.7125    1.9112   -0.0214 H   0  0  0  0  0  0  0  0  0  0  0  0
    0.0555    1.3378    1.4931 H   0  0  0  0  0  0  0  0  0  0  0  0
    0.6004   -0.3705   -0.8845 H   0  0  0  0  0  0  0  0  0  0  0  0
   -0.8293   -1.8060    0.3770 H   0  0  0  0  0  0  0  0  0  0  0  0
   -1.1484    1.1982   -1.3774 H   0  0  0  0  0  0  0  0  0  0  0  0
   -2.0064    0.7095    0.0645 H   0  0  0  0  0  0  0  0  0  0  0  0
   -1.5529   -1.5528   -1.5480 H   0  0  0  0  0  0  0  0  0  0  0  0
   -3.6435   -2.5822   -2.0799 H   0  0  0  0  0  0  0  0  0  0  0  0
   -3.0926   -1.9362   -3.6075 H   0  0  0  0  0  0  0  0  0  0  0  0
   -5.2349   -0.8496   -3.9578 H   0  0  0  0  0  0  0  0  0  0  0  0
   -5.7882   -1.2302   -1.1362 H   0  0  0  0  0  0  0  0  0  0  0  0
   -7.0451   -0.9028   -2.3055 H   0  0  0  0  0  0  0  0  0  0  0  0
   -5.1347   -3.7443   -3.8503 H   0  0  0  0  0  0  0  0  0  0  0  0
   -6.5328   -2.8717   -4.4316 H   0  0  0  0  0  0  0  0  0  0  0  0
  1  2  1  0  0  0  0
  1 25  1  0  0  0  0
  1 26  1  0  0  0  0
  1 27  1  0  0  0  0
  2  3  1  0  0  0  0
  2  4  1  0  0  0  0
  2  6  1  0  0  0  0
  3 28  1  0  0  0  0
  3 29  1  0  0  0  0
  3 30  1  0  0  0  0
  4  5  1  0  0  0  0
  4  6  1  0  0  0  0
  4 31  1  1  0  0  0
  5 17  3  0  0  0  0
  6  7  1  0  0  0  0
  6 32  1  6  0  0  0
  7 18  1  0  0  0  0
  7 20  2  0  0  0  0
  8 18  1  0  0  0  0
  8  9  1  0  0  0  0
  8 34  1  0  0  0  0
  8 35  1  0  0  0  0
  9 21  1  0  0  0  0
  9 10  1  0  0  0  0
  9 36  1  6  0  0  0
 10 19  1  0  0  0  0
 10 38  1  0  0  0  0
 10 39  1  0  0  0  0
 11 19  1  0  0  0  0
 11 12  1  0  0  0  0
 11 22  2  0  0  0  0
 12 13  1  0  0  0  0
 12 41  1  0  0  0  0
 12 42  1  0  0  0  0
 13 14  1  0  0  0  0
 13 16  1  0  0  0  0
 13 43  1  0  0  0  0
 14 15  1  0  0  0  0
 14 44  1  0  0  0  0
 14 45  1  0  0  0  0
 15 23  1  0  0  0  0
 15 24  1  0  0  0  0
 15 16  1  0  0  0  0
 16 46  1  0  0  0  0
 16 47  1  0  0  0  0
 18 33  1  0  0  0  0
 19 40  1  0  0  0  0
 21 37  1  0  0  0  0
M  END
>  <score>
0.42089188098907471

$$$$
Z4083877073
 OpenBabel08202115463D

 60 62  0  0  0  0  0  0  0  0999 V2000
   -7.4536   -2.9027   -3.4842 C   0  0  0  0  0  0  0  0  0  0  0  0
   -6.0078   -2.4423   -3.2626 C   0  0  0  0  0  0  0  0  0  0  0  0
   -5.8616   -0.9716   -3.6710 C   0  0  0  0  0  0  0  0  0  0  0  0
   -5.0636   -3.3054   -4.1075 C   0  0  0  0  0  0  0  0  0  0  0  0
   -5.6489   -2.5964   -1.8024 C   0  0  0  0  0  0  0  0  0  0  0  0
   -3.1835   -3.1196   -1.4524 C   0  0  0  0  0  0  0  0  0  0  0  0
   -2.0817   -2.3416   -1.1877 C   0  0  0  0  0  0  0  0  0  0  0  0
   -2.5654   -1.0278   -1.1219 C   0  0  0  0  0  0  0  0  0  0  0  0
   -0.4979    0.2398   -0.5965 C   0  0  0  0  0  0  0  0  0  0  0  0
    1.2750    1.7838    0.0767 C   0  0  1  0  0  0  0  0  0  0  0  0
    1.5409    3.2725   -0.1567 C   0  0  0  0  0  0  0  0  0  0  0  0
    2.1512    3.7975    1.1356 C   0  0  0  0  0  0  0  0  0  0  0  0
    2.6661    2.5825    1.8951 C   0  0  2  0  0  0  0  0  0  0  0  0
    3.9797    2.1562    1.3910 C   0  0  0  0  0  0  0  0  0  0  0  0
    4.0997    0.7483    3.4341 C   0  0  0  0  0  0  0  0  0  0  0  0
    5.1418    1.0475    4.5200 C   0  0  0  0  0  0  0  0  0  0  0  0
    6.4911    0.4394    4.1558 C   0  0  0  0  0  0  0  0  0  0  0  0
    6.9354    0.8622    2.7885 C   0  0  0  0  0  0  0  0  0  0  0  0
    5.8994    0.6309    1.7279 C   0  0  0  0  0  0  0  0  0  0  0  0
    1.5596    1.5055    1.5876 C   0  0  0  0  0  0  0  0  0  0  0  0
   -4.2447   -2.2821   -1.5332 N   0  0  0  0  0  0  0  0  0  0  0  0
   -1.8249    0.1429   -0.8785 N   0  0  0  0  0  0  0  0  0  0  0  0
   -0.1100    1.4672   -0.2386 N   0  0  0  0  0  0  0  0  0  0  0  0
    4.6256    1.2300    2.1405 N   0  0  0  0  0  0  0  0  0  0  0  0
   -3.8855   -0.9893   -1.3259 N   0  0  0  0  0  0  0  0  0  0  0  0
    0.2641   -0.7105   -0.6656 O   0  0  0  0  0  0  0  0  0  0  0  0
    4.4333    2.6083    0.3827 O   0  0  0  0  0  0  0  0  0  0  0  0
   -7.6519   -2.9643   -4.5338 H   0  0  0  0  0  0  0  0  0  0  0  0
   -8.1241   -2.2000   -3.0354 H   0  0  0  0  0  0  0  0  0  0  0  0
   -7.5935   -3.8651   -3.0379 H   0  0  0  0  0  0  0  0  0  0  0  0
   -5.9391   -0.8870   -4.7349 H   0  0  0  0  0  0  0  0  0  0  0  0
   -4.9074   -0.6066   -3.3530 H   0  0  0  0  0  0  0  0  0  0  0  0
   -6.6363   -0.3950   -3.2102 H   0  0  0  0  0  0  0  0  0  0  0  0
   -5.3774   -3.2819   -5.1302 H   0  0  0  0  0  0  0  0  0  0  0  0
   -5.0872   -4.3138   -3.7505 H   0  0  0  0  0  0  0  0  0  0  0  0
   -4.0672   -2.9228   -4.0316 H   0  0  0  0  0  0  0  0  0  0  0  0
   -5.8363   -3.6080   -1.5082 H   0  0  0  0  0  0  0  0  0  0  0  0
   -6.2643   -1.9371   -1.2267 H   0  0  0  0  0  0  0  0  0  0  0  0
   -3.1993   -4.1530   -1.5684 H   0  0  0  0  0  0  0  0  0  0  0  0
   -1.0994   -2.6597   -1.0630 H   0  0  0  0  0  0  0  0  0  0  0  0
   -2.3225    0.9863   -0.9165 H   0  0  0  0  0  0  0  0  0  0  0  0
   -0.7816    2.1790   -0.1865 H   0  0  0  0  0  0  0  0  0  0  0  0
    1.9245    1.1934   -0.5352 H   0  0  0  0  0  0  0  0  0  0  0  0
    2.2229    3.4050   -0.9705 H   0  0  0  0  0  0  0  0  0  0  0  0
    0.6260    3.7844   -0.3705 H   0  0  0  0  0  0  0  0  0  0  0  0
    1.4095    4.3078    1.7139 H   0  0  0  0  0  0  0  0  0  0  0  0
    2.9575    4.4666    0.9184 H   0  0  0  0  0  0  0  0  0  0  0  0
    2.7334    2.7809    2.9444 H   0  0  0  0  0  0  0  0  0  0  0  0
    3.1842    1.2528    3.6626 H   0  0  0  0  0  0  0  0  0  0  0  0
    3.9234   -0.3058    3.3827 H   0  0  0  0  0  0  0  0  0  0  0  0
    5.2500    2.1073    4.6200 H   0  0  0  0  0  0  0  0  0  0  0  0
    4.8095    0.6332    5.4489 H   0  0  0  0  0  0  0  0  0  0  0  0
    7.2200    0.7577    4.8716 H   0  0  0  0  0  0  0  0  0  0  0  0
    6.4091   -0.6272    4.1797 H   0  0  0  0  0  0  0  0  0  0  0  0
    7.1665    1.9067    2.8149 H   0  0  0  0  0  0  0  0  0  0  0  0
    7.8140    0.3084    2.5310 H   0  0  0  0  0  0  0  0  0  0  0  0
    5.7671   -0.4211    1.5837 H   0  0  0  0  0  0  0  0  0  0  0  0
    6.2226    1.0791    0.8116 H   0  0  0  0  0  0  0  0  0  0  0  0
    0.6859    1.6596    2.1858 H   0  0  0  0  0  0  0  0  0  0  0  0
    1.9266    0.5121    1.7406 H   0  0  0  0  0  0  0  0  0  0  0  0
  1  2  1  0  0  0  0
  1 28  1  0  0  0  0
  1 29  1  0  0  0  0
  1 30  1  0  0  0  0
  2  3  1  0  0  0  0
  2  4  1  0  0  0  0
  2  5  1  0  0  0  0
  3 31  1  0  0  0  0
  3 32  1  0  0  0  0
  3 33  1  0  0  0  0
  4 34  1  0  0  0  0
  4 35  1  0  0  0  0
  4 36  1  0  0  0  0
  5 21  1  0  0  0  0
  5 37  1  0  0  0  0
  5 38  1  0  0  0  0
  6 21  1  0  0  0  0
  6 39  1  0  0  0  0
  6  7  2  0  0  0  0
  7  8  1  0  0  0  0
  7 40  1  0  0  0  0
  8 22  1  0  0  0  0
  8 25  2  0  0  0  0
  9 22  1  0  0  0  0
  9 23  1  0  0  0  0
  9 26  2  0  0  0  0
 10 23  1  0  0  0  0
 10 11  1  0  0  0  0
 10 20  1  0  0  0  0
 10 43  1  6  0  0  0
 11 12  1  0  0  0  0
 11 44  1  0  0  0  0
 11 45  1  0  0  0  0
 12 13  1  0  0  0  0
 12 46  1  0  0  0  0
 12 47  1  0  0  0  0
 13 14  1  0  0  0  0
 13 20  1  0  0  0  0
 13 48  1  1  0  0  0
 14 24  1  0  0  0  0
 14 27  2  0  0  0  0
 15 24  1  0  0  0  0
 15 16  1  0  0  0  0
 15 49  1  0  0  0  0
 15 50  1  0  0  0  0
 16 17  1  0  0  0  0
 16 51  1  0  0  0  0
 16 52  1  0  0  0  0
 17 18  1  0  0  0  0
 17 53  1  0  0  0  0
 17 54  1  0  0  0  0
 18 19  1  0  0  0  0
 18 55  1  0  0  0  0
 18 56  1  0  0  0  0
 19 24  1  0  0  0  0
 19 57  1  0  0  0  0
 19 58  1  0  0  0  0
 20 59  1  0  0  0  0
 20 60  1  0  0  0  0
 21 25  1  0  0  0  0
 22 41  1  0  0  0  0
 23 42  1  0  0  0  0
M  END
>  <score>
0.42094916105270386

$$$$
PV-003646161734
 OpenBabel08202115463D

 51 51  0  0  0  0  0  0  0  0999 V2000
    4.3330    3.0024    3.4767 C   0  0  0  0  0  0  0  0  0  0  0  0
    4.0834    1.8431    2.4953 C   0  0  0  0  0  0  0  0  0  0  0  0
    2.7038    1.9871    1.8820 C   0  0  0  0  0  0  0  0  0  0  0  0
    2.3446    0.8549    0.9349 C   0  0  0  0  0  0  0  0  0  0  0  0
    0.6066    0.2475   -0.6746 C   0  0  0  0  0  0  0  0  0  0  0  0
   -0.8158    0.5229   -1.1646 C   0  0  2  0  0  0  0  0  0  0  0  0
   -1.8279   -0.3778   -0.5010 C   0  0  0  0  0  0  0  0  0  0  0  0
   -3.6838   -1.3949   -1.7738 C   0  0  0  0  0  0  0  0  0  0  0  0
   -5.7683   -2.1164   -2.8739 C   0  0  0  0  0  0  0  0  0  0  0  0
   -5.2144   -2.2055   -4.2865 C   0  0  0  0  0  0  0  0  0  0  0  0
   -7.1309   -1.4429   -2.8931 C   0  0  0  0  0  0  0  0  0  0  0  0
   -5.8308   -3.4332   -2.1570 C   0  0  0  0  0  0  0  0  0  0  0  0
    4.2340    0.4597    3.2142 C   0  0  0  0  0  0  0  0  0  0  0  0
    5.7834    0.2329    3.2233 C   0  0  0  0  0  0  0  0  0  0  0  0
    6.3461    1.0127    2.0016 C   0  0  0  0  0  0  0  0  0  0  0  0
    5.1696    1.8035    1.4030 C   0  0  0  0  0  0  0  0  0  0  0  0
    1.0521    1.0509    0.2954 N   0  0  0  0  0  0  0  0  0  0  0  0
   -3.1638   -0.3412   -1.0988 N   0  0  0  0  0  0  0  0  0  0  0  0
    1.2828   -0.6609   -1.1554 O   0  0  0  0  0  0  0  0  0  0  0  0
   -3.0811   -2.4141   -2.0316 O   0  0  0  0  0  0  0  0  0  0  0  0
   -4.9595   -1.1421   -2.1123 O   0  0  0  0  0  0  0  0  0  0  0  0
   -0.8096    0.3137   -2.5374 F   0  0  0  0  0  0  0  0  0  0  0  0
    4.4233    3.9187    2.9315 H   0  0  0  0  0  0  0  0  0  0  0  0
    5.2364    2.8207    4.0205 H   0  0  0  0  0  0  0  0  0  0  0  0
    3.5128    3.0737    4.1601 H   0  0  0  0  0  0  0  0  0  0  0  0
    2.6687    2.9081    1.3385 H   0  0  0  0  0  0  0  0  0  0  0  0
    1.9823    2.0107    2.6717 H   0  0  0  0  0  0  0  0  0  0  0  0
    2.3177   -0.0601    1.4890 H   0  0  0  0  0  0  0  0  0  0  0  0
    3.0964    0.7910    0.1762 H   0  0  0  0  0  0  0  0  0  0  0  0
    0.4889    1.7983    0.5865 H   0  0  0  0  0  0  0  0  0  0  0  0
   -1.0657    1.5385   -0.9385 H   0  0  0  0  0  0  0  0  0  0  0  0
   -1.9135   -0.0842    0.5243 H   0  0  0  0  0  0  0  0  0  0  0  0
   -1.4658   -1.3831   -0.5557 H   0  0  0  0  0  0  0  0  0  0  0  0
   -3.7006    0.4736   -1.0077 H   0  0  0  0  0  0  0  0  0  0  0  0
   -5.2472   -1.2034   -4.6604 H   0  0  0  0  0  0  0  0  0  0  0  0
   -5.8199   -2.8511   -4.8878 H   0  0  0  0  0  0  0  0  0  0  0  0
   -4.2082   -2.5692   -4.2736 H   0  0  0  0  0  0  0  0  0  0  0  0
   -7.7921   -1.9927   -3.5298 H   0  0  0  0  0  0  0  0  0  0  0  0
   -7.0294   -0.4438   -3.2623 H   0  0  0  0  0  0  0  0  0  0  0  0
   -7.5302   -1.4182   -1.9007 H   0  0  0  0  0  0  0  0  0  0  0  0
   -6.4878   -4.0948   -2.6819 H   0  0  0  0  0  0  0  0  0  0  0  0
   -6.1974   -3.2810   -1.1634 H   0  0  0  0  0  0  0  0  0  0  0  0
   -4.8517   -3.8627   -2.1146 H   0  0  0  0  0  0  0  0  0  0  0  0
    3.8458    0.5001    4.2105 H   0  0  0  0  0  0  0  0  0  0  0  0
    3.7358   -0.3136    2.6677 H   0  0  0  0  0  0  0  0  0  0  0  0
    6.0056   -0.8097    3.1314 H   0  0  0  0  0  0  0  0  0  0  0  0
    6.2075    0.6099    4.1305 H   0  0  0  0  0  0  0  0  0  0  0  0
    6.7382    0.3298    1.2770 H   0  0  0  0  0  0  0  0  0  0  0  0
    7.1190    1.6826    2.3158 H   0  0  0  0  0  0  0  0  0  0  0  0
    4.7986    1.3121    0.5279 H   0  0  0  0  0  0  0  0  0  0  0  0
    5.4792    2.7962    1.1510 H   0  0  0  0  0  0  0  0  0  0  0  0
  1  2  1  0  0  0  0
  1 23  1  0  0  0  0
  1 24  1  0  0  0  0
  1 25  1  0  0  0  0
  2  3  1  0  0  0  0
  2 13  1  0  0  0  0
  2 16  1  0  0  0  0
  3  4  1  0  0  0  0
  3 26  1  0  0  0  0
  3 27  1  0  0  0  0
  4 17  1  0  0  0  0
  4 28  1  0  0  0  0
  4 29  1  0  0  0  0
  5 17  1  0  0  0  0
  5  6  1  0  0  0  0
  5 19  2  0  0  0  0
  6 22  1  0  0  0  0
  6  7  1  0  0  0  0
  6 31  1  1  0  0  0
  7 18  1  0  0  0  0
  7 32  1  0  0  0  0
  7 33  1  0  0  0  0
  8 18  1  0  0  0  0
  8 21  1  0  0  0  0
  8 20  2  0  0  0  0
  9 21  1  0  0  0  0
  9 10  1  0  0  0  0
  9 11  1  0  0  0  0
  9 12  1  0  0  0  0
 10 35  1  0  0  0  0
 10 36  1  0  0  0  0
 10 37  1  0  0  0  0
 11 38  1  0  0  0  0
 11 39  1  0  0  0  0
 11 40  1  0  0  0  0
 12 41  1  0  0  0  0
 12 42  1  0  0  0  0
 12 43  1  0  0  0  0
 13 14  1  0  0  0  0
 13 44  1  0  0  0  0
 13 45  1  0  0  0  0
 14 15  1  0  0  0  0
 14 46  1  0  0  0  0
 14 47  1  0  0  0  0
 15 16  1  0  0  0  0
 15 48  1  0  0  0  0
 15 49  1  0  0  0  0
 16 50  1  0  0  0  0
 16 51  1  0  0  0  0
 17 30  1  0  0  0  0
 18 34  1  0  0  0  0
M  END
>  <score>
0.42111688852310181

$$$$
PV-003584444197
 OpenBabel08202115463D

 44 47  0  0  0  0  0  0  0  0999 V2000
   -7.8171   -3.3910   -3.9733 C   0  0  0  0  0  0  0  0  0  0  0  0
   -5.5751   -2.7337   -3.5095 C   0  0  0  0  0  0  0  0  0  0  0  0
   -3.6896   -1.8935   -2.7636 C   0  0  0  0  0  0  0  0  0  0  0  0
   -2.3501   -1.4053   -2.3356 C   0  0  0  0  0  0  0  0  0  0  0  0
   -0.9850    0.1301   -1.0210 C   0  0  2  0  0  0  0  0  0  0  0  0
   -0.4086   -0.4380    0.3099 C   0  0  0  0  0  0  0  0  0  0  0  0
   -0.0934    1.0009    0.7937 C   0  0  2  0  0  0  0  0  0  0  0  0
    2.1272    1.4211    1.6791 C   0  0  0  0  0  0  0  0  0  0  0  0
    3.5677    1.7893    1.3819 C   0  0  1  0  0  0  0  0  0  0  0  0
    4.1892    3.0319    2.0257 C   0  0  0  0  0  0  0  0  0  0  0  0
    4.6317    1.6402    2.4636 C   0  0  0  0  0  0  0  0  0  0  0  0
    6.0205    1.0011    2.3566 C   0  0  0  0  0  0  0  0  0  0  0  0
    6.0438    0.9948    3.8953 C   0  0  0  0  0  0  0  0  0  0  0  0
    4.5058    0.9876    3.8446 C   0  0  0  0  0  0  0  0  0  0  0  0
   -1.0574    1.5065   -0.3231 C   0  0  0  0  0  0  0  0  0  0  0  0
   -4.1624   -2.8038   -3.6327 C   0  0  0  0  0  0  0  0  0  0  0  0
   -6.4107   -3.5108   -4.2386 O   0  0  0  0  0  0  0  0  0  0  0  0
   -4.7259   -1.2846   -2.1349 O   0  0  0  0  0  0  0  0  0  0  0  0
   -1.3219   -1.8896   -2.8196 O   0  0  0  0  0  0  0  0  0  0  0  0
    1.7602    1.1533    2.8202 O   0  0  0  0  0  0  0  0  0  0  0  0
   -5.9317   -1.8376   -2.6178 N   0  0  0  0  0  0  0  0  0  0  0  0
   -2.2833   -0.4260   -1.4110 N   0  0  0  0  0  0  0  0  0  0  0  0
    1.3023    1.4098    0.6282 N   0  0  0  0  0  0  0  0  0  0  0  0
    6.6005   -0.1181    4.4520 F   0  0  0  0  0  0  0  0  0  0  0  0
    6.5945    2.1180    4.4661 F   0  0  0  0  0  0  0  0  0  0  0  0
   -8.3562   -4.0840   -4.5848 H   0  0  0  0  0  0  0  0  0  0  0  0
   -8.1381   -2.3948   -4.1956 H   0  0  0  0  0  0  0  0  0  0  0  0
   -8.0046   -3.6049   -2.9418 H   0  0  0  0  0  0  0  0  0  0  0  0
   -3.1047   -0.0856   -0.9990 H   0  0  0  0  0  0  0  0  0  0  0  0
   -0.3133    0.0864   -1.8527 H   0  0  0  0  0  0  0  0  0  0  0  0
    0.4567   -1.0543    0.1822 H   0  0  0  0  0  0  0  0  0  0  0  0
   -1.1280   -0.9526    0.9120 H   0  0  0  0  0  0  0  0  0  0  0  0
   -0.4129    1.2171    1.7917 H   0  0  0  0  0  0  0  0  0  0  0  0
    1.6324    1.6759   -0.2554 H   0  0  0  0  0  0  0  0  0  0  0  0
    3.7978    1.5406    0.3669 H   0  0  0  0  0  0  0  0  0  0  0  0
    4.8537    3.6518    1.4609 H   0  0  0  0  0  0  0  0  0  0  0  0
    3.6070    3.6407    2.6855 H   0  0  0  0  0  0  0  0  0  0  0  0
    6.7646    1.6193    1.8995 H   0  0  0  0  0  0  0  0  0  0  0  0
    6.0343    0.0316    1.9041 H   0  0  0  0  0  0  0  0  0  0  0  0
    4.0618    0.0141    3.8417 H   0  0  0  0  0  0  0  0  0  0  0  0
    4.0299    1.5950    4.5859 H   0  0  0  0  0  0  0  0  0  0  0  0
   -2.0340    1.7654    0.0290 H   0  0  0  0  0  0  0  0  0  0  0  0
   -0.6631    2.3119   -0.9069 H   0  0  0  0  0  0  0  0  0  0  0  0
   -3.6124   -3.4250   -4.2597 H   0  0  0  0  0  0  0  0  0  0  0  0
  1 17  1  0  0  0  0
  1 26  1  0  0  0  0
  1 27  1  0  0  0  0
  1 28  1  0  0  0  0
  2 17  1  0  0  0  0
  2 16  1  0  0  0  0
  2 21  2  0  0  0  0
  3 18  1  0  0  0  0
  3  4  1  0  0  0  0
  3 16  2  0  0  0  0
  4 22  1  0  0  0  0
  4 19  2  0  0  0  0
  5 22  1  0  0  0  0
  5  6  1  0  0  0  0
  5 15  1  0  0  0  0
  5 30  1  6  0  0  0
  6  7  1  0  0  0  0
  6 31  1  0  0  0  0
  6 32  1  0  0  0  0
  7 23  1  0  0  0  0
  7 15  1  0  0  0  0
  7 33  1  1  0  0  0
  8 23  1  0  0  0  0
  8  9  1  0  0  0  0
  8 20  2  0  0  0  0
  9 10  1  0  0  0  0
  9 11  1  0  0  0  0
  9 35  1  6  0  0  0
 10 11  1  0  0  0  0
 10 36  1  0  0  0  0
 10 37  1  0  0  0  0
 11 12  1  0  0  0  0
 11 14  1  0  0  0  0
 12 13  1  0  0  0  0
 12 38  1  0  0  0  0
 12 39  1  0  0  0  0
 13 24  1  0  0  0  0
 13 25  1  0  0  0  0
 13 14  1  0  0  0  0
 14 40  1  0  0  0  0
 14 41  1  0  0  0  0
 15 42  1  0  0  0  0
 15 43  1  0  0  0  0
 16 44  1  0  0  0  0
 21 18  1  0  0  0  0
 22 29  1  0  0  0  0
 23 34  1  0  0  0  0
M  END
>  <score>
0.42123180627822876

$$$$
PV-003701624732
 OpenBabel08202115463D

 56 57  0  0  0  0  0  0  0  0999 V2000
   -7.9801   -3.9884   -4.1894 C   0  0  0  0  0  0  0  0  0  0  0  0
   -5.8562   -3.3051   -3.1265 C   0  0  0  0  0  0  0  0  0  0  0  0
   -3.8737   -2.4005   -2.0167 C   0  0  0  0  0  0  0  0  0  0  0  0
   -3.2540   -1.1056   -1.5531 C   0  0  0  0  0  0  0  0  0  0  0  0
   -1.2567   -0.0322   -0.5989 C   0  0  1  0  0  0  0  0  0  0  0  0
   -1.0437   -0.0620    0.9093 C   0  0  0  0  0  0  0  0  0  0  0  0
   -0.1219    1.0610    1.3629 C   0  0  0  0  0  0  0  0  0  0  0  0
    2.3496    0.9346    1.2032 C   0  0  0  0  0  0  0  0  0  0  0  0
    2.4176    0.7117    2.6589 C   0  0  1  0  0  0  0  0  0  0  0  0
    2.8570   -0.6011    3.2353 C   0  0  0  0  0  0  0  0  0  0  0  0
    3.7568    0.5921    3.3158 C   0  0  1  0  0  0  0  0  0  0  0  0
    5.0354    0.8361    2.5619 C   0  0  0  0  0  0  0  0  0  0  0  0
    4.8961    3.2201    2.8538 C   0  0  0  0  0  0  0  0  0  0  0  0
    6.4255    2.2870    1.2397 C   0  0  0  0  0  0  0  0  0  0  0  0
    0.9693    1.0884   -0.8486 C   0  0  2  0  0  0  0  0  0  0  0  0
    0.3280    2.4291   -1.2266 C   0  0  0  0  0  0  0  0  0  0  0  0
    0.0778   -0.0460   -1.3209 C   0  0  0  0  0  0  0  0  0  0  0  0
   -7.1264   -3.0095   -3.5330 N   0  0  0  0  0  0  0  0  0  0  0  0
   -5.2132   -2.2740   -2.5712 N   0  0  0  0  0  0  0  0  0  0  0  0
   -2.0351   -1.2075   -1.0001 N   0  0  0  0  0  0  0  0  0  0  0  0
    1.1353    1.0230    0.6060 N   0  0  0  0  0  0  0  0  0  0  0  0
    5.1077    2.1340    1.8809 N   0  0  0  0  0  0  0  0  0  0  0  0
   -5.3592   -4.4113   -3.2606 O   0  0  0  0  0  0  0  0  0  0  0  0
   -3.8426   -0.0353   -1.6820 O   0  0  0  0  0  0  0  0  0  0  0  0
    3.3871    1.0474    0.4856 O   0  0  0  0  0  0  0  0  0  0  0  0
   -8.9838   -3.6194   -4.2263 H   0  0  0  0  0  0  0  0  0  0  0  0
   -7.9578   -4.9062   -3.6400 H   0  0  0  0  0  0  0  0  0  0  0  0
   -7.6265   -4.1593   -5.1847 H   0  0  0  0  0  0  0  0  0  0  0  0
   -7.4749   -2.1070   -3.3771 H   0  0  0  0  0  0  0  0  0  0  0  0
   -5.6591   -1.4020   -2.5362 H   0  0  0  0  0  0  0  0  0  0  0  0
   -3.2406   -2.8212   -2.7697 H   0  0  0  0  0  0  0  0  0  0  0  0
   -3.9221   -3.0645   -1.1790 H   0  0  0  0  0  0  0  0  0  0  0  0
   -1.6524   -2.0987   -0.8597 H   0  0  0  0  0  0  0  0  0  0  0  0
   -1.7908    0.8569   -0.8620 H   0  0  0  0  0  0  0  0  0  0  0  0
   -0.6080   -1.0008    1.1807 H   0  0  0  0  0  0  0  0  0  0  0  0
   -1.9901    0.0466    1.3965 H   0  0  0  0  0  0  0  0  0  0  0  0
   -0.6044    2.0019    1.1991 H   0  0  0  0  0  0  0  0  0  0  0  0
    0.0898    0.9448    2.4053 H   0  0  0  0  0  0  0  0  0  0  0  0
    1.6762    1.2325    3.2282 H   0  0  0  0  0  0  0  0  0  0  0  0
    3.1041   -1.4148    2.5858 H   0  0  0  0  0  0  0  0  0  0  0  0
    2.3902   -0.9798    4.1205 H   0  0  0  0  0  0  0  0  0  0  0  0
    3.7773    1.0279    4.2928 H   0  0  0  0  0  0  0  0  0  0  0  0
    5.1398    0.0671    1.8253 H   0  0  0  0  0  0  0  0  0  0  0  0
    5.8476    0.7785    3.2561 H   0  0  0  0  0  0  0  0  0  0  0  0
    4.0396    2.9987    3.4556 H   0  0  0  0  0  0  0  0  0  0  0  0
    4.7366    4.1402    2.3315 H   0  0  0  0  0  0  0  0  0  0  0  0
    5.7586    3.3100    3.4806 H   0  0  0  0  0  0  0  0  0  0  0  0
    7.1913    2.2614    1.9865 H   0  0  0  0  0  0  0  0  0  0  0  0
    6.4635    3.2228    0.7222 H   0  0  0  0  0  0  0  0  0  0  0  0
    6.5786    1.4880    0.5446 H   0  0  0  0  0  0  0  0  0  0  0  0
    1.9270    1.0054   -1.3186 H   0  0  0  0  0  0  0  0  0  0  0  0
    0.9951    3.2273   -0.9763 H   0  0  0  0  0  0  0  0  0  0  0  0
   -0.5894    2.5495   -0.6891 H   0  0  0  0  0  0  0  0  0  0  0  0
    0.1307    2.4461   -2.2781 H   0  0  0  0  0  0  0  0  0  0  0  0
    0.5681   -0.9777   -1.1300 H   0  0  0  0  0  0  0  0  0  0  0  0
   -0.0931    0.0589   -2.3719 H   0  0  0  0  0  0  0  0  0  0  0  0
  1 18  1  0  0  0  0
  1 26  1  0  0  0  0
  1 27  1  0  0  0  0
  1 28  1  0  0  0  0
  2 18  1  0  0  0  0
  2 19  1  0  0  0  0
  2 23  2  0  0  0  0
  3 19  1  0  0  0  0
  3  4  1  0  0  0  0
  3 31  1  0  0  0  0
  3 32  1  0  0  0  0
  4 20  1  0  0  0  0
  4 24  2  0  0  0  0
  5 20  1  0  0  0  0
  5  6  1  0  0  0  0
  5 17  1  0  0  0  0
  5 34  1  6  0  0  0
  6  7  1  0  0  0  0
  6 35  1  0  0  0  0
  6 36  1  0  0  0  0
  7 21  1  0  0  0  0
  7 37  1  0  0  0  0
  7 38  1  0  0  0  0
  8 21  1  0  0  0  0
  8  9  1  0  0  0  0
  8 25  2  0  0  0  0
  9 10  1  0  0  0  0
  9 11  1  0  0  0  0
  9 39  1  1  0  0  0
 10 11  1  0  0  0  0
 10 40  1  0  0  0  0
 10 41  1  0  0  0  0
 11 12  1  0  0  0  0
 11 42  1  1  0  0  0
 12 22  1  0  0  0  0
 12 43  1  0  0  0  0
 12 44  1  0  0  0  0
 13 22  1  0  0  0  0
 13 45  1  0  0  0  0
 13 46  1  0  0  0  0
 13 47  1  0  0  0  0
 14 22  1  0  0  0  0
 14 48  1  0  0  0  0
 14 49  1  0  0  0  0
 14 50  1  0  0  0  0
 15 21  1  0  0  0  0
 15 16  1  0  0  0  0
 15 17  1  0  0  0  0
 15 51  1  6  0  0  0
 16 52  1  0  0  0  0
 16 53  1  0  0  0  0
 16 54  1  0  0  0  0
 17 55  1  0  0  0  0
 17 56  1  0  0  0  0
 18 29  1  0  0  0  0
 19 30  1  0  0  0  0
 20 33  1  0  0  0  0
M  END
>  <score>
0.42126435041427612

$$$$
PV-003987305772
 OpenBabel08202115463D

 58 59  0  0  0  0  0  0  0  0999 V2000
    4.7873   -1.7733    3.4797 C   0  0  0  0  0  0  0  0  0  0  0  0
    4.4936    0.5907    3.4993 C   0  0  0  0  0  0  0  0  0  0  0  0
    4.7074    1.8156    2.6083 C   0  0  0  0  0  0  0  0  0  0  0  0
    6.1751    1.8470    2.1654 C   0  0  0  0  0  0  0  0  0  0  0  0
    4.4195    3.1342    3.3596 C   0  0  0  0  0  0  0  0  0  0  0  0
    3.8184    1.6876    1.3783 C   0  0  0  0  0  0  0  0  0  0  0  0
    2.3147    1.7807    1.6435 C   0  0  0  0  0  0  0  0  0  0  0  0
    0.0908    1.5131    0.6669 C   0  0  0  0  0  0  0  0  0  0  0  0
   -0.5536    1.5216   -0.7003 C   0  0  1  0  0  0  0  0  0  0  0  0
   -0.2520    2.8497   -1.3989 C   0  0  0  0  0  0  0  0  0  0  0  0
   -0.2721    0.2604   -1.5570 C   0  0  0  0  0  0  0  0  0  0  0  0
   -1.7876    0.1478   -1.8986 C   0  0  2  0  0  0  0  0  0  0  0  0
   -3.4181   -1.5624   -2.4536 C   0  0  0  0  0  0  0  0  0  0  0  0
   -3.9051   -2.9714   -2.2244 C   0  0  0  0  0  0  0  0  0  0  0  0
   -5.1886   -3.7154   -4.2516 C   0  0  0  0  0  0  0  0  0  0  0  0
   -6.5108   -3.8897   -4.5292 C   0  0  0  0  0  0  0  0  0  0  0  0
   -6.4111   -3.1060   -2.5466 C   0  0  0  0  0  0  0  0  0  0  0  0
   -6.7721   -2.4930   -1.2374 C   0  0  0  0  0  0  0  0  0  0  0  0
   -2.0561    1.1040   -0.7152 C   0  0  0  0  0  0  0  0  0  0  0  0
    4.9655   -0.5442    2.7853 O   0  0  0  0  0  0  0  0  0  0  0  0
    1.8936    2.1896    2.7247 O   0  0  0  0  0  0  0  0  0  0  0  0
   -3.9760   -0.8206   -3.2453 O   0  0  0  0  0  0  0  0  0  0  0  0
    1.5440    1.4739    0.5989 N   0  0  0  0  0  0  0  0  0  0  0  0
   -2.3510   -1.1937   -1.7391 N   0  0  0  0  0  0  0  0  0  0  0  0
   -5.1363   -3.2145   -2.9758 N   0  0  0  0  0  0  0  0  0  0  0  0
   -7.2795   -3.5037   -3.4580 N   0  0  0  0  0  0  0  0  0  0  0  0
    5.3034   -1.7326    4.4161 H   0  0  0  0  0  0  0  0  0  0  0  0
    5.1802   -2.5756    2.8908 H   0  0  0  0  0  0  0  0  0  0  0  0
    3.7443   -1.9360    3.6544 H   0  0  0  0  0  0  0  0  0  0  0  0
    5.0418    0.7023    4.4114 H   0  0  0  0  0  0  0  0  0  0  0  0
    3.4528    0.4767    3.7198 H   0  0  0  0  0  0  0  0  0  0  0  0
    6.3318    2.6756    1.5068 H   0  0  0  0  0  0  0  0  0  0  0  0
    6.4131    0.9367    1.6558 H   0  0  0  0  0  0  0  0  0  0  0  0
    6.8045    1.9505    3.0244 H   0  0  0  0  0  0  0  0  0  0  0  0
    4.5476    3.9608    2.6923 H   0  0  0  0  0  0  0  0  0  0  0  0
    5.0975    3.2314    4.1817 H   0  0  0  0  0  0  0  0  0  0  0  0
    3.4140    3.1238    3.7252 H   0  0  0  0  0  0  0  0  0  0  0  0
    4.0156    0.7382    0.9258 H   0  0  0  0  0  0  0  0  0  0  0  0
    4.0826    2.4696    0.6973 H   0  0  0  0  0  0  0  0  0  0  0  0
    1.9711    1.2130   -0.2436 H   0  0  0  0  0  0  0  0  0  0  0  0
   -0.2042    2.3984    1.1905 H   0  0  0  0  0  0  0  0  0  0  0  0
   -0.2508    0.6514    1.2015 H   0  0  0  0  0  0  0  0  0  0  0  0
    0.7921    3.0682   -1.3153 H   0  0  0  0  0  0  0  0  0  0  0  0
   -0.8179    3.6317   -0.9374 H   0  0  0  0  0  0  0  0  0  0  0  0
   -0.5193    2.7775   -2.4325 H   0  0  0  0  0  0  0  0  0  0  0  0
    0.1120   -0.5683   -0.9998 H   0  0  0  0  0  0  0  0  0  0  0  0
    0.3539    0.4408   -2.4059 H   0  0  0  0  0  0  0  0  0  0  0  0
   -2.0590    0.5375   -2.8574 H   0  0  0  0  0  0  0  0  0  0  0  0
   -1.9447   -1.8227   -1.1070 H   0  0  0  0  0  0  0  0  0  0  0  0
   -4.0954   -3.1131   -1.1810 H   0  0  0  0  0  0  0  0  0  0  0  0
   -3.1534   -3.6610   -2.5472 H   0  0  0  0  0  0  0  0  0  0  0  0
   -4.3842   -3.9200   -4.8783 H   0  0  0  0  0  0  0  0  0  0  0  0
   -6.8853   -4.2621   -5.4251 H   0  0  0  0  0  0  0  0  0  0  0  0
   -7.0133   -1.4605   -1.3809 H   0  0  0  0  0  0  0  0  0  0  0  0
   -5.9440   -2.5753   -0.5648 H   0  0  0  0  0  0  0  0  0  0  0  0
   -7.6182   -3.0029   -0.8263 H   0  0  0  0  0  0  0  0  0  0  0  0
   -2.7281    1.9040   -0.9457 H   0  0  0  0  0  0  0  0  0  0  0  0
   -2.3800    0.6114    0.1777 H   0  0  0  0  0  0  0  0  0  0  0  0
  1 20  1  0  0  0  0
  1 27  1  0  0  0  0
  1 28  1  0  0  0  0
  1 29  1  0  0  0  0
  2 20  1  0  0  0  0
  2  3  1  0  0  0  0
  2 30  1  0  0  0  0
  2 31  1  0  0  0  0
  3  4  1  0  0  0  0
  3  5  1  0  0  0  0
  3  6  1  0  0  0  0
  4 32  1  0  0  0  0
  4 33  1  0  0  0  0
  4 34  1  0  0  0  0
  5 35  1  0  0  0  0
  5 36  1  0  0  0  0
  5 37  1  0  0  0  0
  6  7  1  0  0  0  0
  6 38  1  0  0  0  0
  6 39  1  0  0  0  0
  7 23  1  0  0  0  0
  7 21  2  0  0  0  0
  8 23  1  0  0  0  0
  8 41  1  0  0  0  0
  8 42  1  0  0  0  0
  9  8  1  1  0  0  0
  9 10  1  0  0  0  0
  9 11  1  0  0  0  0
  9 19  1  0  0  0  0
 10 43  1  0  0  0  0
 10 44  1  0  0  0  0
 10 45  1  0  0  0  0
 11 12  1  0  0  0  0
 11 46  1  0  0  0  0
 11 47  1  0  0  0  0
 12 24  1  0  0  0  0
 12 19  1  0  0  0  0
 12 48  1  6  0  0  0
 13 24  1  0  0  0  0
 13 14  1  0  0  0  0
 13 22  2  0  0  0  0
 14 25  1  0  0  0  0
 14 50  1  0  0  0  0
 14 51  1  0  0  0  0
 15 25  1  0  0  0  0
 15 52  1  0  0  0  0
 15 16  2  0  0  0  0
 16 26  1  0  0  0  0
 16 53  1  0  0  0  0
 17 25  1  0  0  0  0
 17 18  1  0  0  0  0
 17 26  2  0  0  0  0
 18 54  1  0  0  0  0
 18 55  1  0  0  0  0
 18 56  1  0  0  0  0
 19 57  1  0  0  0  0
 19 58  1  0  0  0  0
 23 40  1  0  0  0  0
 24 49  1  0  0  0  0
M  END
>  <score>
0.42130279541015625

$$$$
Z3609801932
 OpenBabel08202115463D

 36 37  0  0  0  0  0  0  0  0999 V2000
    5.7647    0.2528    3.1052 C   0  0  0  0  0  0  0  0  0  0  0  0
    3.6807    0.6301    2.0472 C   0  0  0  0  0  0  0  0  0  0  0  0
    2.6866    0.0253    1.0923 C   0  0  0  0  0  0  0  0  0  0  0  0
    1.5260    0.9573    0.7696 C   0  0  1  0  0  0  0  0  0  0  0  0
    0.5352    0.1646   -0.0126 C   0  0  0  0  0  0  0  0  0  0  0  0
   -0.7658    0.8351   -0.3786 C   0  0  0  0  0  0  0  0  0  0  0  0
   -3.0560    0.0984   -1.1140 C   0  0  0  0  0  0  0  0  0  0  0  0
   -3.7982   -0.9689   -1.8198 C   0  0  0  0  0  0  0  0  0  0  0  0
   -5.7001   -1.6794   -2.8202 C   0  0  0  0  0  0  0  0  0  0  0  0
   -5.1141   -2.9023   -3.0871 C   0  0  0  0  0  0  0  0  0  0  0  0
   -3.8126   -3.0717   -2.6599 C   0  0  0  0  0  0  0  0  0  0  0  0
    0.9725    1.9994    1.6903 C   0  0  0  0  0  0  0  0  0  0  0  0
    1.6471    2.4059    0.4141 C   0  0  0  0  0  0  0  0  0  0  0  0
    4.6615   -0.2348    2.3257 O   0  0  0  0  0  0  0  0  0  0  0  0
    3.6176    1.7344    2.5054 O   0  0  0  0  0  0  0  0  0  0  0  0
   -3.6305    1.1024   -0.7146 O   0  0  0  0  0  0  0  0  0  0  0  0
   -1.7401   -0.1004   -0.9432 N   0  0  0  0  0  0  0  0  0  0  0  0
   -5.0500   -0.6909   -2.1835 N   0  0  0  0  0  0  0  0  0  0  0  0
   -3.1325   -2.1085   -2.0208 N   0  0  0  0  0  0  0  0  0  0  0  0
   -6.0481   -4.2740   -3.9916 Br  0  0  0  0  0  0  0  0  0  0  0  0
    0.7957    2.8941   -0.5320 F   0  0  0  0  0  0  0  0  0  0  0  0
    2.8565    3.0219    0.4477 F   0  0  0  0  0  0  0  0  0  0  0  0
    6.3765   -0.5697    3.4118 H   0  0  0  0  0  0  0  0  0  0  0  0
    5.3927    0.7620    3.9697 H   0  0  0  0  0  0  0  0  0  0  0  0
    6.3467    0.9294    2.5150 H   0  0  0  0  0  0  0  0  0  0  0  0
    2.2939   -0.8685    1.5303 H   0  0  0  0  0  0  0  0  0  0  0  0
    3.1930   -0.2162    0.1812 H   0  0  0  0  0  0  0  0  0  0  0  0
    0.2958   -0.7050    0.5629 H   0  0  0  0  0  0  0  0  0  0  0  0
    1.0104   -0.1304   -0.9247 H   0  0  0  0  0  0  0  0  0  0  0  0
   -0.5664    1.5995   -1.1003 H   0  0  0  0  0  0  0  0  0  0  0  0
   -1.1841    1.2758    0.5021 H   0  0  0  0  0  0  0  0  0  0  0  0
   -1.3917   -0.9706   -1.2289 H   0  0  0  0  0  0  0  0  0  0  0  0
   -6.6817   -1.5182   -3.1238 H   0  0  0  0  0  0  0  0  0  0  0  0
   -3.3413   -3.9810   -2.8406 H   0  0  0  0  0  0  0  0  0  0  0  0
    1.4470    2.1893    2.6303 H   0  0  0  0  0  0  0  0  0  0  0  0
   -0.0863    2.1126    1.7953 H   0  0  0  0  0  0  0  0  0  0  0  0
  1 14  1  0  0  0  0
  1 23  1  0  0  0  0
  1 24  1  0  0  0  0
  1 25  1  0  0  0  0
  2 14  1  0  0  0  0
  2  3  1  0  0  0  0
  2 15  2  0  0  0  0
  3 26  1  0  0  0  0
  3 27  1  0  0  0  0
  4  3  1  1  0  0  0
  4  5  1  0  0  0  0
  4 12  1  0  0  0  0
  4 13  1  0  0  0  0
  5  6  1  0  0  0  0
  5 28  1  0  0  0  0
  5 29  1  0  0  0  0
  6 17  1  0  0  0  0
  6 30  1  0  0  0  0
  6 31  1  0  0  0  0
  7 17  1  0  0  0  0
  7  8  1  0  0  0  0
  7 16  2  0  0  0  0
  8 19  1  0  0  0  0
  8 18  2  0  0  0  0
  9 18  1  0  0  0  0
  9 33  1  0  0  0  0
  9 10  2  0  0  0  0
 10 20  1  0  0  0  0
 10 11  1  0  0  0  0
 11 34  1  0  0  0  0
 11 19  2  0  0  0  0
 12 13  1  0  0  0  0
 12 35  1  0  0  0  0
 12 36  1  0  0  0  0
 13 21  1  0  0  0  0
 13 22  1  0  0  0  0
 17 32  1  0  0  0  0
M  END
>  <score>
0.42136895656585693

$$$$
PV-003275097210
 OpenBabel08202115463D

 49 52  0  0  0  0  0  0  0  0999 V2000
   -5.8579   -3.7918   -4.0925 C   0  0  0  0  0  0  0  0  0  0  0  0
   -5.2118   -1.8258   -2.3534 C   0  0  2  0  0  0  0  0  0  0  0  0
   -4.0271   -1.1482   -3.0892 C   0  0  0  0  0  0  0  0  0  0  0  0
   -3.2845   -0.9617   -1.7328 C   0  0  1  0  0  0  0  0  0  0  0  0
   -2.7199    0.4210   -1.5090 C   0  0  0  0  0  0  0  0  0  0  0  0
   -0.4864   -0.5946   -1.1831 C   0  0  0  0  0  0  0  0  0  0  0  0
    0.8473    0.0205   -0.8034 C   0  0  2  0  0  0  0  0  0  0  0  0
    0.8915    0.7967    0.4774 C   0  0  2  0  0  0  0  0  0  0  0  0
    2.2221    1.4846    2.4215 C   0  0  0  0  0  0  0  0  0  0  0  0
    3.5715    1.4812    3.0625 C   0  0  0  0  0  0  0  0  0  0  0  0
    4.1020    0.0624    3.0888 C   0  0  0  0  0  0  0  0  0  0  0  0
    5.5520    0.0468    3.5770 C   0  0  0  0  0  0  0  0  0  0  0  0
    5.9264    2.2722    2.7985 C   0  0  0  0  0  0  0  0  0  0  0  0
    4.4991    2.4039    2.2748 C   0  0  0  0  0  0  0  0  0  0  0  0
   -0.4001    0.6894   -0.2805 C   0  0  1  0  0  0  0  0  0  0  0  0
   -0.7235    1.8254   -1.2113 C   0  0  0  0  0  0  0  0  0  0  0  0
   -4.6365   -1.2262   -1.0336 C   0  0  0  0  0  0  0  0  0  0  0  0
   -5.2119   -3.5922   -2.4238 S   0  0  0  0  0  0  0  0  0  0  0  0
   -3.4030    1.4228   -1.7176 O   0  0  0  0  0  0  0  0  0  0  0  0
    1.2461    1.9711    2.9910 O   0  0  0  0  0  0  0  0  0  0  0  0
    6.3500    0.9154    2.7576 O   0  0  0  0  0  0  0  0  0  0  0  0
   -1.4104    0.5265   -1.0621 N   0  0  0  0  0  0  0  0  0  0  0  0
    2.1548    0.9311    1.2074 N   0  0  0  0  0  0  0  0  0  0  0  0
    3.4660    1.9540    4.3781 F   0  0  0  0  0  0  0  0  0  0  0  0
   -6.3523   -4.7187   -3.8889 H   0  0  0  0  0  0  0  0  0  0  0  0
   -5.0882   -3.8824   -4.8302 H   0  0  0  0  0  0  0  0  0  0  0  0
   -6.5333   -3.0115   -4.3749 H   0  0  0  0  0  0  0  0  0  0  0  0
   -6.1781   -1.4573   -2.6279 H   0  0  0  0  0  0  0  0  0  0  0  0
   -3.5192   -1.7886   -3.7798 H   0  0  0  0  0  0  0  0  0  0  0  0
   -4.2836   -0.2304   -3.5756 H   0  0  0  0  0  0  0  0  0  0  0  0
   -2.5288   -1.6925   -1.5337 H   0  0  0  0  0  0  0  0  0  0  0  0
   -0.7505   -1.3847   -0.5117 H   0  0  0  0  0  0  0  0  0  0  0  0
   -0.4656   -0.9694   -2.1851 H   0  0  0  0  0  0  0  0  0  0  0  0
    1.7468   -0.4180   -1.1823 H   0  0  0  0  0  0  0  0  0  0  0  0
    0.0825    0.7238    1.1739 H   0  0  0  0  0  0  0  0  0  0  0  0
    2.9790    0.6034    0.7906 H   0  0  0  0  0  0  0  0  0  0  0  0
    3.5009   -0.5270    3.7493 H   0  0  0  0  0  0  0  0  0  0  0  0
    4.0574   -0.3495    2.1022 H   0  0  0  0  0  0  0  0  0  0  0  0
    5.9363   -0.9500    3.5172 H   0  0  0  0  0  0  0  0  0  0  0  0
    5.5887    0.3834    4.5920 H   0  0  0  0  0  0  0  0  0  0  0  0
    5.9641    2.6221    3.8089 H   0  0  0  0  0  0  0  0  0  0  0  0
    6.5798    2.8631    2.1913 H   0  0  0  0  0  0  0  0  0  0  0  0
    4.1717    3.4164    2.3870 H   0  0  0  0  0  0  0  0  0  0  0  0
    4.4742    2.1331    1.2399 H   0  0  0  0  0  0  0  0  0  0  0  0
   -1.1927    0.0834    0.1090 H   0  0  0  0  0  0  0  0  0  0  0  0
   -1.1490    2.5594   -0.5593 H   0  0  0  0  0  0  0  0  0  0  0  0
   -0.7772    2.1717   -2.2223 H   0  0  0  0  0  0  0  0  0  0  0  0
   -5.1369   -0.3399   -0.7037 H   0  0  0  0  0  0  0  0  0  0  0  0
   -4.5796   -1.9259   -0.2261 H   0  0  0  0  0  0  0  0  0  0  0  0
  1 18  1  0  0  0  0
  1 25  1  0  0  0  0
  1 26  1  0  0  0  0
  1 27  1  0  0  0  0
  2 18  1  0  0  0  0
  2  3  1  0  0  0  0
  2 17  1  0  0  0  0
  2 28  1  6  0  0  0
  3  4  1  0  0  0  0
  3 29  1  0  0  0  0
  3 30  1  0  0  0  0
  4  5  1  0  0  0  0
  4 17  1  0  0  0  0
  4 31  1  1  0  0  0
  5 22  1  0  0  0  0
  5 19  2  0  0  0  0
  6 22  1  0  0  0  0
  6  7  1  0  0  0  0
  6 32  1  0  0  0  0
  6 33  1  0  0  0  0
  7  8  1  0  0  0  0
  7 15  1  0  0  0  0
  7 34  1  6  0  0  0
  8 23  1  0  0  0  0
  8 15  1  0  0  0  0
  8 35  1  1  0  0  0
  9 23  1  0  0  0  0
  9 10  1  0  0  0  0
  9 20  2  0  0  0  0
 10 24  1  0  0  0  0
 10 11  1  0  0  0  0
 10 14  1  0  0  0  0
 11 12  1  0  0  0  0
 11 37  1  0  0  0  0
 11 38  1  0  0  0  0
 12 21  1  0  0  0  0
 12 39  1  0  0  0  0
 12 40  1  0  0  0  0
 13 21  1  0  0  0  0
 13 14  1  0  0  0  0
 13 41  1  0  0  0  0
 13 42  1  0  0  0  0
 14 43  1  0  0  0  0
 14 44  1  0  0  0  0
 15 16  1  0  0  0  0
 15 45  1  1  0  0  0
 16 22  1  0  0  0  0
 16 46  1  0  0  0  0
 16 47  1  0  0  0  0
 17 48  1  0  0  0  0
 17 49  1  0  0  0  0
 23 36  1  0  0  0  0
M  END
>  <score>
0.4213874340057373

$$$$
Z3438342442
 OpenBabel08202115463D

 48 50  0  0  0  0  0  0  0  0999 V2000
    5.2699    1.0092    5.6654 N   0  0  0  0  0  0  0  0  0  0  0  0
    2.5769    1.4403    1.2553 N   0  0  0  0  0  0  0  0  0  0  0  0
    0.5247    1.5065    0.2824 N   0  0  0  0  0  0  0  0  0  0  0  0
   -2.5285    0.2491   -1.1570 N   0  0  0  0  0  0  0  0  0  0  0  0
    5.4611    1.0096    4.5445 C   0  0  0  0  0  0  0  0  0  0  0  0
    5.7198    1.0732    3.1038 C   0  0  1  0  0  0  0  0  0  0  0  0
    5.5487   -0.3076    2.4616 C   0  0  0  0  0  0  0  0  0  0  0  0
    4.1113   -0.3574    1.9266 C   0  0  1  0  0  0  0  0  0  0  0  0
    3.4917    0.9935    2.2952 C   0  0  1  0  0  0  0  0  0  0  0  0
    1.3073    1.0064    1.2429 C   0  0  0  0  0  0  0  0  0  0  0  0
   -0.9040    1.2360    0.2243 C   0  0  1  0  0  0  0  0  0  0  0  0
   -1.6365    2.3364   -0.5372 C   0  0  0  0  0  0  0  0  0  0  0  0
   -2.9213    1.6566   -0.9872 C   0  0  0  0  0  0  0  0  0  0  0  0
   -3.3349   -0.7262   -1.7777 C   0  0  0  0  0  0  0  0  0  0  0  0
   -4.5342   -0.4127   -2.3981 C   0  0  0  0  0  0  0  0  0  0  0  0
   -5.2887   -1.4097   -2.9871 C   0  0  0  0  0  0  0  0  0  0  0  0
   -4.8436   -2.7223   -2.9622 C   0  0  0  0  0  0  0  0  0  0  0  0
   -5.6180   -3.7787   -3.6911 C   0  0  0  0  0  0  0  0  0  0  0  0
   -3.6478   -3.0347   -2.3436 C   0  0  0  0  0  0  0  0  0  0  0  0
   -2.8909   -2.0348   -1.7528 C   0  0  0  0  0  0  0  0  0  0  0  0
   -1.1888   -0.0190   -0.5993 C   0  0  0  0  0  0  0  0  0  0  0  0
    4.6866    1.9462    2.4109 C   0  0  0  0  0  0  0  0  0  0  0  0
    4.1119   -0.5363    0.5096 O   0  0  0  0  0  0  0  0  0  0  0  0
    0.8743    0.1973    2.0594 O   0  0  0  0  0  0  0  0  0  0  0  0
   -5.2659   -5.0130   -3.3273 F   0  0  0  0  0  0  0  0  0  0  0  0
   -5.4477   -3.7168   -5.0127 F   0  0  0  0  0  0  0  0  0  0  0  0
   -6.9315   -3.6872   -3.4790 F   0  0  0  0  0  0  0  0  0  0  0  0
    6.7071    1.4492    2.9345 H   0  0  0  0  0  0  0  0  0  0  0  0
    5.6998   -1.0764    3.1902 H   0  0  0  0  0  0  0  0  0  0  0  0
    6.2468   -0.4326    1.6604 H   0  0  0  0  0  0  0  0  0  0  0  0
    3.5682   -1.1560    2.3873 H   0  0  0  0  0  0  0  0  0  0  0  0
    3.9960    0.3139    0.0791 H   0  0  0  0  0  0  0  0  0  0  0  0
    2.9691    0.9280    3.2266 H   0  0  0  0  0  0  0  0  0  0  0  0
    2.8889    2.0593    0.5626 H   0  0  0  0  0  0  0  0  0  0  0  0
    0.9268    2.0753   -0.4069 H   0  0  0  0  0  0  0  0  0  0  0  0
   -1.2895    1.1369    1.2176 H   0  0  0  0  0  0  0  0  0  0  0  0
   -1.0633    2.6670   -1.3781 H   0  0  0  0  0  0  0  0  0  0  0  0
   -1.8470    3.1690    0.1011 H   0  0  0  0  0  0  0  0  0  0  0  0
   -3.2685    2.0700   -1.9110 H   0  0  0  0  0  0  0  0  0  0  0  0
   -3.6846    1.7528   -0.2435 H   0  0  0  0  0  0  0  0  0  0  0  0
   -4.8663    0.5726   -2.4203 H   0  0  0  0  0  0  0  0  0  0  0  0
   -6.1905   -1.1751   -3.4491 H   0  0  0  0  0  0  0  0  0  0  0  0
   -3.3157   -4.0200   -2.3214 H   0  0  0  0  0  0  0  0  0  0  0  0
   -1.9892   -2.2694   -1.2908 H   0  0  0  0  0  0  0  0  0  0  0  0
   -1.1973   -0.8917    0.0198 H   0  0  0  0  0  0  0  0  0  0  0  0
   -0.4651   -0.1405   -1.3780 H   0  0  0  0  0  0  0  0  0  0  0  0
    4.4437    2.8045    3.0017 H   0  0  0  0  0  0  0  0  0  0  0  0
    5.0274    2.2611    1.4467 H   0  0  0  0  0  0  0  0  0  0  0  0
  2 34  1  0  0  0  0
  3 35  1  0  0  0  0
  5  6  1  0  0  0  0
  5  1  3  0  0  0  0
  6  7  1  0  0  0  0
  6 22  1  0  0  0  0
  6 28  1  6  0  0  0
  7  8  1  0  0  0  0
  7 29  1  0  0  0  0
  7 30  1  0  0  0  0
  8 23  1  0  0  0  0
  8  9  1  0  0  0  0
  8 31  1  1  0  0  0
  9  2  1  0  0  0  0
  9 22  1  0  0  0  0
  9 33  1  1  0  0  0
 10  2  1  0  0  0  0
 10  3  1  0  0  0  0
 10 24  2  0  0  0  0
 11  3  1  0  0  0  0
 11 12  1  0  0  0  0
 11 21  1  0  0  0  0
 11 36  1  1  0  0  0
 12 13  1  0  0  0  0
 12 37  1  0  0  0  0
 12 38  1  0  0  0  0
 13  4  1  0  0  0  0
 13 39  1  0  0  0  0
 13 40  1  0  0  0  0
 14  4  1  0  0  0  0
 14 20  1  0  0  0  0
 14 15  2  0  0  0  0
 15 16  1  0  0  0  0
 15 41  1  0  0  0  0
 16 42  1  0  0  0  0
 16 17  2  0  0  0  0
 17 18  1  0  0  0  0
 17 19  1  0  0  0  0
 18 25  1  0  0  0  0
 18 26  1  0  0  0  0
 18 27  1  0  0  0  0
 19 43  1  0  0  0  0
 19 20  2  0  0  0  0
 20 44  1  0  0  0  0
 21  4  1  0  0  0  0
 21 45  1  0  0  0  0
 21 46  1  0  0  0  0
 22 47  1  0  0  0  0
 22 48  1  0  0  0  0
 23 32  1  0  0  0  0
M  END
>  <score>
0.42144566774368286

$$$$
PV-003254316941
 OpenBabel08202115463D

 52 55  0  0  0  0  0  0  0  0999 V2000
   -7.4908   -3.0673   -3.7845 C   0  0  0  0  0  0  0  0  0  0  0  0
   -6.2419   -2.8069   -3.0148 C   0  0  0  0  0  0  0  0  0  0  0  0
   -4.9260   -2.9205   -3.2661 C   0  0  0  0  0  0  0  0  0  0  0  0
   -4.2838   -2.4916   -2.0747 C   0  0  0  0  0  0  0  0  0  0  0  0
   -2.8484   -2.4223   -1.8156 C   0  0  0  0  0  0  0  0  0  0  0  0
   -2.0473   -1.3733   -1.6335 C   0  0  0  0  0  0  0  0  0  0  0  0
   -2.5563   -0.1406   -1.7027 C   0  0  0  0  0  0  0  0  0  0  0  0
   -1.6834    1.1010   -1.6929 C   0  0  0  0  0  0  0  0  0  0  0  0
   -0.5524    0.6616    0.3780 C   0  0  0  0  0  0  0  0  0  0  0  0
    0.6424    1.0638    1.2030 C   0  0  0  0  0  0  0  0  0  0  0  0
    1.9297    0.9508    0.7183 C   0  0  0  0  0  0  0  0  0  0  0  0
    2.7500    1.7809    2.6590 C   0  0  0  0  0  0  0  0  0  0  0  0
    3.9628    2.1743    3.4496 C   0  0  0  0  0  0  0  0  0  0  0  0
    4.8493    3.0520    2.5899 C   0  0  0  0  0  0  0  0  0  0  0  0
    5.4401    2.2405    1.4352 C   0  0  0  0  0  0  0  0  0  0  0  0
    5.2983    0.2084    2.6797 C   0  0  0  0  0  0  0  0  0  0  0  0
    4.6985    0.9120    3.8939 C   0  0  0  0  0  0  0  0  0  0  0  0
    0.5038    1.5648    2.4837 C   0  0  0  0  0  0  0  0  0  0  0  0
    0.2144   -0.3580   -1.6549 C   0  0  0  0  0  0  0  0  0  0  0  0
   -0.5911   -1.5993   -1.3546 C   0  0  0  0  0  0  0  0  0  0  0  0
   -0.3772    0.8518   -1.0683 N   0  0  0  0  0  0  0  0  0  0  0  0
    3.0045    1.3083    1.4366 N   0  0  0  0  0  0  0  0  0  0  0  0
    1.5565    1.9341    3.2324 N   0  0  0  0  0  0  0  0  0  0  0  0
   -5.1597   -2.1380   -1.1620 N   0  0  0  0  0  0  0  0  0  0  0  0
    6.1374    1.0964    1.9523 O   0  0  0  0  0  0  0  0  0  0  0  0
   -6.4251   -2.3429   -1.7534 O   0  0  0  0  0  0  0  0  0  0  0  0
   -7.2967   -2.9511   -4.8303 H   0  0  0  0  0  0  0  0  0  0  0  0
   -8.2467   -2.3727   -3.4830 H   0  0  0  0  0  0  0  0  0  0  0  0
   -7.8259   -4.0653   -3.5930 H   0  0  0  0  0  0  0  0  0  0  0  0
   -4.4759   -3.2511   -4.1434 H   0  0  0  0  0  0  0  0  0  0  0  0
   -2.3721   -3.3454   -1.7648 H   0  0  0  0  0  0  0  0  0  0  0  0
   -3.1190   -0.1016   -2.6120 H   0  0  0  0  0  0  0  0  0  0  0  0
   -3.2191   -0.0450   -0.8682 H   0  0  0  0  0  0  0  0  0  0  0  0
   -2.1857    1.8718   -1.1467 H   0  0  0  0  0  0  0  0  0  0  0  0
   -1.5279    1.4215   -2.7019 H   0  0  0  0  0  0  0  0  0  0  0  0
   -0.7512   -0.3742    0.5585 H   0  0  0  0  0  0  0  0  0  0  0  0
   -1.3906    1.2466    0.6942 H   0  0  0  0  0  0  0  0  0  0  0  0
    2.0718    0.5743   -0.2406 H   0  0  0  0  0  0  0  0  0  0  0  0
    3.6612    2.7253    4.3158 H   0  0  0  0  0  0  0  0  0  0  0  0
    4.2690    3.8590    2.1935 H   0  0  0  0  0  0  0  0  0  0  0  0
    5.6445    3.4444    3.1887 H   0  0  0  0  0  0  0  0  0  0  0  0
    4.6512    1.9141    0.7903 H   0  0  0  0  0  0  0  0  0  0  0  0
    6.1224    2.8529    0.8834 H   0  0  0  0  0  0  0  0  0  0  0  0
    4.5076   -0.1295    2.0429 H   0  0  0  0  0  0  0  0  0  0  0  0
    5.8752   -0.6305    3.0087 H   0  0  0  0  0  0  0  0  0  0  0  0
    4.0108    0.2534    4.3820 H   0  0  0  0  0  0  0  0  0  0  0  0
    5.4816    1.1778    4.5729 H   0  0  0  0  0  0  0  0  0  0  0  0
   -0.4518    1.6595    2.8831 H   0  0  0  0  0  0  0  0  0  0  0  0
    1.2002   -0.4845   -1.2586 H   0  0  0  0  0  0  0  0  0  0  0  0
    0.2693   -0.2330   -2.7161 H   0  0  0  0  0  0  0  0  0  0  0  0
   -0.4678   -1.8557   -0.3231 H   0  0  0  0  0  0  0  0  0  0  0  0
   -0.2379   -2.4024   -1.9670 H   0  0  0  0  0  0  0  0  0  0  0  0
  1  2  1  0  0  0  0
  1 27  1  0  0  0  0
  1 28  1  0  0  0  0
  1 29  1  0  0  0  0
  2 26  1  0  0  0  0
  2  3  2  0  0  0  0
  3  4  1  0  0  0  0
  3 30  1  0  0  0  0
  4  5  1  0  0  0  0
  4 24  2  0  0  0  0
  5 31  1  0  0  0  0
  5  6  2  0  0  0  0
  6  7  1  0  0  0  0
  6 20  1  0  0  0  0
  7  8  1  0  0  0  0
  7 32  1  0  0  0  0
  7 33  1  0  0  0  0
  8 21  1  0  0  0  0
  8 34  1  0  0  0  0
  8 35  1  0  0  0  0
  9 21  1  0  0  0  0
  9 10  1  0  0  0  0
  9 36  1  0  0  0  0
  9 37  1  0  0  0  0
 10 18  1  0  0  0  0
 10 11  2  0  0  0  0
 11 22  1  0  0  0  0
 11 38  1  0  0  0  0
 12 13  1  0  0  0  0
 12 23  1  0  0  0  0
 12 22  2  0  0  0  0
 13 14  1  0  0  0  0
 13 17  1  0  0  0  0
 13 39  1  0  0  0  0
 14 15  1  0  0  0  0
 14 40  1  0  0  0  0
 14 41  1  0  0  0  0
 15 25  1  0  0  0  0
 15 42  1  0  0  0  0
 15 43  1  0  0  0  0
 16 25  1  0  0  0  0
 16 17  1  0  0  0  0
 16 44  1  0  0  0  0
 16 45  1  0  0  0  0
 17 46  1  0  0  0  0
 17 47  1  0  0  0  0
 18 48  1  0  0  0  0
 18 23  2  0  0  0  0
 19 21  1  0  0  0  0
 19 20  1  0  0  0  0
 19 49  1  0  0  0  0
 19 50  1  0  0  0  0
 20 51  1  0  0  0  0
 20 52  1  0  0  0  0
 24 26  1  0  0  0  0
M  END
>  <score>
0.42147773504257202

$$$$
Z3594751645
 OpenBabel08202115463D

 42 45  0  0  0  0  0  0  0  0999 V2000
   -0.2983    2.0190   -0.1934 O   0  0  0  0  0  0  0  0  0  0  0  0
    4.0562    3.2787    1.9366 O   0  0  0  0  0  0  0  0  0  0  0  0
    0.4162    1.0370   -0.0774 C   0  0  0  0  0  0  0  0  0  0  0  0
   -1.1674   -0.5625   -1.0494 C   0  0  0  0  0  0  0  0  0  0  0  0
   -2.0855    0.3942   -1.4322 C   0  0  0  0  0  0  0  0  0  0  0  0
   -3.5084   -1.2258   -2.1243 C   0  0  0  0  0  0  0  0  0  0  0  0
   -4.8271   -1.6067   -2.7299 C   0  0  0  0  0  0  0  0  0  0  0  0
   -5.8685   -2.0253   -1.6862 C   0  0  0  0  0  0  0  0  0  0  0  0
   -6.0712   -3.4857   -1.4291 C   0  0  0  0  0  0  0  0  0  0  0  0
   -7.1301   -2.6929   -2.1355 C   0  0  0  0  0  0  0  0  0  0  0  0
   -1.5268   -1.8821   -1.2494 C   0  0  0  0  0  0  0  0  0  0  0  0
    2.4326    2.1244    0.9878 C   0  0  0  0  0  0  0  0  0  0  0  0
    3.6315    2.0380    1.5900 C   0  0  0  0  0  0  0  0  0  0  0  0
    4.5688    0.9127    1.9498 C   0  0  0  0  0  0  0  0  0  0  0  0
    5.1379    0.9784    3.3799 C   0  0  0  0  0  0  0  0  0  0  0  0
    6.4182    1.6402    2.8189 C   0  0  0  0  0  0  0  0  0  0  0  0
    6.0284    1.0971    1.4532 C   0  0  0  0  0  0  0  0  0  0  0  0
    2.1221    3.5098    0.9793 C   0  0  0  0  0  0  0  0  0  0  0  0
    0.0720   -0.2123   -0.4841 N   0  0  0  0  0  0  0  0  0  0  0  0
   -3.2700    0.0795   -1.9769 N   0  0  0  0  0  0  0  0  0  0  0  0
   -2.7036   -2.2353   -1.7929 N   0  0  0  0  0  0  0  0  0  0  0  0
    1.6497    1.0643    0.4739 N   0  0  0  0  0  0  0  0  0  0  0  0
    3.0749    4.2151    1.5450 N   0  0  0  0  0  0  0  0  0  0  0  0
    0.7375   -0.9234   -0.3754 H   0  0  0  0  0  0  0  0  0  0  0  0
   -1.8499    1.3975   -1.2929 H   0  0  0  0  0  0  0  0  0  0  0  0
   -4.6699   -2.4249   -3.4013 H   0  0  0  0  0  0  0  0  0  0  0  0
   -5.2077   -0.7671   -3.2731 H   0  0  0  0  0  0  0  0  0  0  0  0
   -5.9530   -1.3809   -0.8363 H   0  0  0  0  0  0  0  0  0  0  0  0
   -6.2402   -3.8350   -0.4319 H   0  0  0  0  0  0  0  0  0  0  0  0
   -5.4954   -4.2088   -1.9681 H   0  0  0  0  0  0  0  0  0  0  0  0
   -7.3099   -2.8504   -3.1784 H   0  0  0  0  0  0  0  0  0  0  0  0
   -8.0547   -2.4766   -1.6423 H   0  0  0  0  0  0  0  0  0  0  0  0
   -0.8610   -2.6300   -0.9685 H   0  0  0  0  0  0  0  0  0  0  0  0
    2.0823    0.1866    0.5275 H   0  0  0  0  0  0  0  0  0  0  0  0
    4.1207   -0.0230    1.6878 H   0  0  0  0  0  0  0  0  0  0  0  0
    4.5783    1.5998    4.0474 H   0  0  0  0  0  0  0  0  0  0  0  0
    5.2997    0.0225    3.8328 H   0  0  0  0  0  0  0  0  0  0  0  0
    6.4332    2.7080    2.8857 H   0  0  0  0  0  0  0  0  0  0  0  0
    7.3320    1.2450    3.2109 H   0  0  0  0  0  0  0  0  0  0  0  0
    6.1333    1.8026    0.6556 H   0  0  0  0  0  0  0  0  0  0  0  0
    6.5194    0.1838    1.1891 H   0  0  0  0  0  0  0  0  0  0  0  0
    1.2525    3.9141    0.5770 H   0  0  0  0  0  0  0  0  0  0  0  0
  3 19  1  0  0  0  0
  3 22  1  0  0  0  0
  3  1  2  0  0  0  0
  4 19  1  0  0  0  0
  4 11  1  0  0  0  0
  4  5  2  0  0  0  0
  5 20  1  0  0  0  0
  5 25  1  0  0  0  0
  6  7  1  0  0  0  0
  6 21  1  0  0  0  0
  6 20  2  0  0  0  0
  7  8  1  0  0  0  0
  7 26  1  0  0  0  0
  7 27  1  0  0  0  0
  8  9  1  0  0  0  0
  8 10  1  0  0  0  0
  8 28  1  0  0  0  0
  9 10  1  0  0  0  0
  9 29  1  0  0  0  0
  9 30  1  0  0  0  0
 10 31  1  0  0  0  0
 10 32  1  0  0  0  0
 11 33  1  0  0  0  0
 11 21  2  0  0  0  0
 12 22  1  0  0  0  0
 12 18  1  0  0  0  0
 12 13  2  0  0  0  0
 13 14  1  0  0  0  0
 13  2  1  0  0  0  0
 14 15  1  0  0  0  0
 14 17  1  0  0  0  0
 14 35  1  0  0  0  0
 15 16  1  0  0  0  0
 15 36  1  0  0  0  0
 15 37  1  0  0  0  0
 16 17  1  0  0  0  0
 16 38  1  0  0  0  0
 16 39  1  0  0  0  0
 17 40  1  0  0  0  0
 17 41  1  0  0  0  0
 18 42  1  0  0  0  0
 18 23  2  0  0  0  0
 19 24  1  0  0  0  0
 22 34  1  0  0  0  0
 23  2  1  0  0  0  0
M  END
>  <score>
0.42151445150375366

$$$$
PV-004063760169
 OpenBabel08202115463D

 55 57  0  0  0  0  0  0  0  0999 V2000
   -7.0559   -2.4284   -4.6407 C   0  0  0  0  0  0  0  0  0  0  0  0
   -6.5862   -3.6640   -2.6372 C   0  0  0  0  0  0  0  0  0  0  0  0
   -5.1445   -1.8461   -3.2924 C   0  0  0  0  0  0  0  0  0  0  0  0
   -3.9317   -2.2798   -2.4834 C   0  0  0  0  0  0  0  0  0  0  0  0
   -3.2527   -1.0792   -1.8448 C   0  0  0  0  0  0  0  0  0  0  0  0
   -1.8609   -1.3986   -1.2985 C   0  0  0  0  0  0  0  0  0  0  0  0
   -0.0711   -0.6266    0.3335 C   0  0  0  0  0  0  0  0  0  0  0  0
    0.7001    0.7001    0.1412 C   0  0  2  0  0  0  0  0  0  0  0  0
    1.4508    1.0389    1.4443 C   0  0  2  0  0  0  0  0  0  0  0  0
    3.8878    0.8783    1.8937 C   0  0  0  0  0  0  0  0  0  0  0  0
    5.2529    1.3497    1.4567 C   0  0  0  0  0  0  0  0  0  0  0  0
    6.0123    2.1027    2.4979 C   0  0  0  0  0  0  0  0  0  0  0  0
    6.2914    3.4444    2.6060 C   0  0  0  0  0  0  0  0  0  0  0  0
    7.1281    3.5578    3.7247 C   0  0  0  0  0  0  0  0  0  0  0  0
    6.6942    0.0660    3.8537 C   0  0  0  0  0  0  0  0  0  0  0  0
    0.7267    2.2916    1.9835 C   0  0  0  0  0  0  0  0  0  0  0  0
   -0.4400    1.7550    0.0503 C   0  0  1  0  0  0  0  0  0  0  0  0
   -1.6890    0.9521   -0.3584 C   0  0  0  0  0  0  0  0  0  0  0  0
   -5.9931   -2.9562   -3.7775 N   0  0  0  0  0  0  0  0  0  0  0  0
   -1.2713   -0.4579   -0.5247 N   0  0  0  0  0  0  0  0  0  0  0  0
    2.8589    1.3307    1.1713 N   0  0  0  0  0  0  0  0  0  0  0  0
    7.3614    2.3628    4.2754 N   0  0  0  0  0  0  0  0  0  0  0  0
    6.6628    1.4841    3.5119 N   0  0  0  0  0  0  0  0  0  0  0  0
   -1.3541   -2.5020   -1.4968 O   0  0  0  0  0  0  0  0  0  0  0  0
    3.7515    0.1315    2.8487 O   0  0  0  0  0  0  0  0  0  0  0  0
   -0.6028    2.2155    1.4294 O   0  0  0  0  0  0  0  0  0  0  0  0
   -7.5007   -1.5728   -4.1771 H   0  0  0  0  0  0  0  0  0  0  0  0
   -7.8015   -3.1814   -4.7890 H   0  0  0  0  0  0  0  0  0  0  0  0
   -6.6404   -2.1462   -5.5855 H   0  0  0  0  0  0  0  0  0  0  0  0
   -5.8314   -3.8542   -1.9031 H   0  0  0  0  0  0  0  0  0  0  0  0
   -7.0012   -4.5922   -2.9705 H   0  0  0  0  0  0  0  0  0  0  0  0
   -7.3586   -3.0617   -2.2065 H   0  0  0  0  0  0  0  0  0  0  0  0
   -5.7464   -1.2114   -2.6762 H   0  0  0  0  0  0  0  0  0  0  0  0
   -4.7985   -1.2954   -4.1420 H   0  0  0  0  0  0  0  0  0  0  0  0
   -3.2366   -2.7730   -3.1302 H   0  0  0  0  0  0  0  0  0  0  0  0
   -4.2457   -2.9551   -1.7150 H   0  0  0  0  0  0  0  0  0  0  0  0
   -3.8637   -0.7315   -1.0381 H   0  0  0  0  0  0  0  0  0  0  0  0
   -3.1608   -0.3083   -2.5811 H   0  0  0  0  0  0  0  0  0  0  0  0
   -0.3495   -0.7619    1.3577 H   0  0  0  0  0  0  0  0  0  0  0  0
    0.5161   -1.4605    0.0098 H   0  0  0  0  0  0  0  0  0  0  0  0
    1.3340    0.6957   -0.7208 H   0  0  0  0  0  0  0  0  0  0  0  0
    1.3823    0.2311    2.1426 H   0  0  0  0  0  0  0  0  0  0  0  0
    3.0623    1.9007    0.4005 H   0  0  0  0  0  0  0  0  0  0  0  0
    5.1294    1.9878    0.6068 H   0  0  0  0  0  0  0  0  0  0  0  0
    5.8289    0.4919    1.1786 H   0  0  0  0  0  0  0  0  0  0  0  0
    5.9540    4.2111    1.9897 H   0  0  0  0  0  0  0  0  0  0  0  0
    7.5165    4.4548    4.0798 H   0  0  0  0  0  0  0  0  0  0  0  0
    6.6187   -0.5184    2.9605 H   0  0  0  0  0  0  0  0  0  0  0  0
    5.8729   -0.1631    4.5000 H   0  0  0  0  0  0  0  0  0  0  0  0
    7.6141   -0.1605    4.3511 H   0  0  0  0  0  0  0  0  0  0  0  0
    1.2208    3.1825    1.6564 H   0  0  0  0  0  0  0  0  0  0  0  0
    0.6908    2.2751    3.0528 H   0  0  0  0  0  0  0  0  0  0  0  0
   -0.2126    2.5388   -0.6418 H   0  0  0  0  0  0  0  0  0  0  0  0
   -2.0808    1.3288   -1.2800 H   0  0  0  0  0  0  0  0  0  0  0  0
   -2.4364    1.0248    0.4038 H   0  0  0  0  0  0  0  0  0  0  0  0
  1 19  1  0  0  0  0
  1 27  1  0  0  0  0
  1 28  1  0  0  0  0
  1 29  1  0  0  0  0
  2 19  1  0  0  0  0
  2 30  1  0  0  0  0
  2 31  1  0  0  0  0
  2 32  1  0  0  0  0
  3 19  1  0  0  0  0
  3  4  1  0  0  0  0
  3 33  1  0  0  0  0
  3 34  1  0  0  0  0
  4  5  1  0  0  0  0
  4 35  1  0  0  0  0
  4 36  1  0  0  0  0
  5  6  1  0  0  0  0
  5 37  1  0  0  0  0
  5 38  1  0  0  0  0
  6 20  1  0  0  0  0
  6 24  2  0  0  0  0
  7 20  1  0  0  0  0
  7  8  1  0  0  0  0
  7 39  1  0  0  0  0
  7 40  1  0  0  0  0
  8  9  1  0  0  0  0
  8 17  1  0  0  0  0
  8 41  1  6  0  0  0
  9 21  1  0  0  0  0
  9 16  1  0  0  0  0
  9 42  1  1  0  0  0
 10 21  1  0  0  0  0
 10 11  1  0  0  0  0
 10 25  2  0  0  0  0
 11 12  1  0  0  0  0
 11 44  1  0  0  0  0
 11 45  1  0  0  0  0
 12 23  1  0  0  0  0
 12 13  2  0  0  0  0
 13 14  1  0  0  0  0
 13 46  1  0  0  0  0
 14 47  1  0  0  0  0
 14 22  2  0  0  0  0
 15 23  1  0  0  0  0
 15 48  1  0  0  0  0
 15 49  1  0  0  0  0
 15 50  1  0  0  0  0
 16 26  1  0  0  0  0
 16 51  1  0  0  0  0
 16 52  1  0  0  0  0
 17 26  1  0  0  0  0
 17 18  1  0  0  0  0
 17 53  1  6  0  0  0
 18 20  1  0  0  0  0
 18 54  1  0  0  0  0
 18 55  1  0  0  0  0
 21 43  1  0  0  0  0
 22 23  1  0  0  0  0
M  END
>  <score>
0.42153757810592651

$$$$
PV-003208174407
 OpenBabel08202115463D

 53 54  0  0  0  0  0  0  0  0999 V2000
    0.5924   -0.5460    0.4121 C   0  0  0  0  0  0  0  0  0  0  0  0
   -0.2889    0.6621    0.1396 C   0  0  1  0  0  0  0  0  0  0  0  0
    0.5388    1.9305    0.0121 C   0  0  0  0  0  0  0  0  0  0  0  0
    2.7347    1.5222    1.0539 C   0  0  0  0  0  0  0  0  0  0  0  0
    3.5852    1.5626    2.2952 C   0  0  0  0  0  0  0  0  0  0  0  0
    4.9141    0.8629    2.0610 C   0  0  0  0  0  0  0  0  0  0  0  0
    5.6872    0.4854    3.3427 C   0  0  0  0  0  0  0  0  0  0  0  0
    5.8971    2.8703    3.9763 C   0  0  0  0  0  0  0  0  0  0  0  0
    6.1030    1.8041    1.7542 C   0  0  0  0  0  0  0  0  0  0  0  0
   -1.1567    0.4383   -1.0776 C   0  0  0  0  0  0  0  0  0  0  0  0
   -2.8198   -1.1894   -1.9898 C   0  0  0  0  0  0  0  0  0  0  0  0
   -3.5971   -2.3852   -1.8074 C   0  0  1  0  0  0  0  0  0  0  0  0
   -4.7775   -2.1420   -0.8678 C   0  0  0  0  0  0  0  0  0  0  0  0
   -5.8219   -1.1956   -1.4605 C   0  0  0  0  0  0  0  0  0  0  0  0
   -6.3365   -2.2802   -3.6033 C   0  0  0  0  0  0  0  0  0  0  0  0
   -4.9024   -2.0799   -4.0082 C   0  0  0  0  0  0  0  0  0  0  0  0
   -3.9201   -2.9258   -3.1880 C   0  0  0  0  0  0  0  0  0  0  0  0
    1.4870    2.0309    1.1231 N   0  0  0  0  0  0  0  0  0  0  0  0
    6.4440    1.7535    3.1939 N   0  0  0  0  0  0  0  0  0  0  0  0
   -1.9783   -0.7684   -0.9673 N   0  0  0  0  0  0  0  0  0  0  0  0
    3.1669    1.0390    0.0083 O   0  0  0  0  0  0  0  0  0  0  0  0
   -2.8716   -0.5216   -3.0215 O   0  0  0  0  0  0  0  0  0  0  0  0
   -6.7292   -1.8901   -2.3782 O   0  0  0  0  0  0  0  0  0  0  0  0
   -7.1204   -2.7819   -4.3639 O   0  0  0  0  0  0  0  0  0  0  0  0
   -0.0113   -1.3565    0.7635 H   0  0  0  0  0  0  0  0  0  0  0  0
    1.3205   -0.2957    1.1551 H   0  0  0  0  0  0  0  0  0  0  0  0
    1.0883   -0.8362   -0.4905 H   0  0  0  0  0  0  0  0  0  0  0  0
   -0.9394    0.7838    0.9805 H   0  0  0  0  0  0  0  0  0  0  0  0
   -0.1120    2.7797    0.0256 H   0  0  0  0  0  0  0  0  0  0  0  0
    1.0783    1.9087   -0.9116 H   0  0  0  0  0  0  0  0  0  0  0  0
    1.2056    2.4832    1.9456 H   0  0  0  0  0  0  0  0  0  0  0  0
    3.0663    1.0722    3.0922 H   0  0  0  0  0  0  0  0  0  0  0  0
    3.7680    2.5825    2.5622 H   0  0  0  0  0  0  0  0  0  0  0  0
    4.7787    0.0635    1.3629 H   0  0  0  0  0  0  0  0  0  0  0  0
    5.0844    0.4283    4.2250 H   0  0  0  0  0  0  0  0  0  0  0  0
    6.2821   -0.3999    3.2587 H   0  0  0  0  0  0  0  0  0  0  0  0
    6.3349    3.7880    3.6432 H   0  0  0  0  0  0  0  0  0  0  0  0
    6.1218    2.7236    5.0121 H   0  0  0  0  0  0  0  0  0  0  0  0
    4.8362    2.9127    3.8435 H   0  0  0  0  0  0  0  0  0  0  0  0
    6.8452    1.3862    1.1066 H   0  0  0  0  0  0  0  0  0  0  0  0
    5.8224    2.7731    1.3975 H   0  0  0  0  0  0  0  0  0  0  0  0
   -0.5253    0.3459   -1.9365 H   0  0  0  0  0  0  0  0  0  0  0  0
   -1.8024    1.2829   -1.1982 H   0  0  0  0  0  0  0  0  0  0  0  0
   -1.9332   -1.2976   -0.1438 H   0  0  0  0  0  0  0  0  0  0  0  0
   -2.9711   -3.1106   -1.3310 H   0  0  0  0  0  0  0  0  0  0  0  0
   -5.2466   -3.0806   -0.6585 H   0  0  0  0  0  0  0  0  0  0  0  0
   -4.4080   -1.7166    0.0419 H   0  0  0  0  0  0  0  0  0  0  0  0
   -6.3951   -0.7701   -0.6634 H   0  0  0  0  0  0  0  0  0  0  0  0
   -5.3193   -0.4165   -1.9945 H   0  0  0  0  0  0  0  0  0  0  0  0
   -4.8001   -2.3447   -5.0399 H   0  0  0  0  0  0  0  0  0  0  0  0
   -4.6532   -1.0475   -3.8780 H   0  0  0  0  0  0  0  0  0  0  0  0
   -4.3423   -3.9019   -3.0706 H   0  0  0  0  0  0  0  0  0  0  0  0
   -3.0050   -2.9963   -3.7381 H   0  0  0  0  0  0  0  0  0  0  0  0
  1  2  1  0  0  0  0
  1 25  1  0  0  0  0
  1 26  1  0  0  0  0
  1 27  1  0  0  0  0
  2  3  1  0  0  0  0
  2 10  1  0  0  0  0
  2 28  1  1  0  0  0
  3 18  1  0  0  0  0
  3 29  1  0  0  0  0
  3 30  1  0  0  0  0
  4 18  1  0  0  0  0
  4  5  1  0  0  0  0
  4 21  2  0  0  0  0
  5  6  1  0  0  0  0
  5 32  1  0  0  0  0
  5 33  1  0  0  0  0
  6  7  1  0  0  0  0
  6  9  1  0  0  0  0
  6 34  1  0  0  0  0
  7 19  1  0  0  0  0
  7 35  1  0  0  0  0
  7 36  1  0  0  0  0
  8 19  1  0  0  0  0
  8 37  1  0  0  0  0
  8 38  1  0  0  0  0
  8 39  1  0  0  0  0
  9 19  1  0  0  0  0
  9 40  1  0  0  0  0
  9 41  1  0  0  0  0
 10 20  1  0  0  0  0
 10 42  1  0  0  0  0
 10 43  1  0  0  0  0
 11 20  1  0  0  0  0
 11 12  1  0  0  0  0
 11 22  2  0  0  0  0
 12 13  1  0  0  0  0
 12 17  1  0  0  0  0
 12 45  1  1  0  0  0
 13 14  1  0  0  0  0
 13 46  1  0  0  0  0
 13 47  1  0  0  0  0
 14 23  1  0  0  0  0
 14 48  1  0  0  0  0
 14 49  1  0  0  0  0
 15 23  1  0  0  0  0
 15 16  1  0  0  0  0
 15 24  2  0  0  0  0
 16 17  1  0  0  0  0
 16 50  1  0  0  0  0
 16 51  1  0  0  0  0
 17 52  1  0  0  0  0
 17 53  1  0  0  0  0
 18 31  1  0  0  0  0
 20 44  1  0  0  0  0
M  END
>  <score>
0.42153936624526978

$$$$
PV-003062926585
 OpenBabel08202115463D

 51 52  0  0  0  0  0  0  0  0999 V2000
   -7.9132   -2.7017   -3.8045 C   0  0  0  0  0  0  0  0  0  0  0  0
   -7.2392   -2.0249   -2.6393 C   0  0  0  0  0  0  0  0  0  0  0  0
   -4.5403   -2.6497   -2.6458 C   0  0  0  0  0  0  0  0  0  0  0  0
   -4.0143   -1.3171   -2.1492 C   0  0  0  0  0  0  0  0  0  0  0  0
   -2.1172    0.2347   -2.1515 C   0  0  0  0  0  0  0  0  0  0  0  0
   -1.1860   -0.0807   -0.9910 C   0  0  0  0  0  0  0  0  0  0  0  0
   -0.1804    1.0234   -0.7081 C   0  0  1  0  0  0  0  0  0  0  0  0
   -0.8760    2.3086   -0.2902 C   0  0  0  0  0  0  0  0  0  0  0  0
    0.8432    0.5791    0.3240 C   0  0  0  0  0  0  0  0  0  0  0  0
    2.0412    1.5093    0.4238 C   0  0  0  0  0  0  0  0  0  0  0  0
    4.0515    1.8256    1.8525 C   0  0  0  0  0  0  0  0  0  0  0  0
    5.0304    1.1979    2.8186 C   0  0  2  0  0  0  0  0  0  0  0  0
    6.0263    0.5848    3.8053 C   0  0  2  0  0  0  0  0  0  0  0  0
    6.8158    1.5373    4.7128 C   0  0  0  0  0  0  0  0  0  0  0  0
    7.2976   -0.0758    3.1764 C   0  0  0  0  0  0  0  0  0  0  0  0
    6.4792    0.9566    2.3901 C   0  0  1  0  0  0  0  0  0  0  0  0
   -6.0666   -3.0264   -1.7276 S   0  0  1  0  0  0  0  0  0  0  0  0
   -5.9367   -2.4050   -0.3808 O   0  0  0  0  0  0  0  0  0  0  0  0
   -4.6544   -0.6362   -1.3490 O   0  0  0  0  0  0  0  0  0  0  0  0
    4.2163    2.9745    1.4445 O   0  0  0  0  0  0  0  0  0  0  0  0
    7.8889    0.7103    4.2270 O   0  0  0  0  0  0  0  0  0  0  0  0
   -2.8215   -0.9423   -2.6378 N   0  0  0  0  0  0  0  0  0  0  0  0
    2.9943    1.0889    1.4525 N   0  0  0  0  0  0  0  0  0  0  0  0
   -7.3170   -3.5278   -4.1313 H   0  0  0  0  0  0  0  0  0  0  0  0
   -8.0244   -2.0028   -4.6070 H   0  0  0  0  0  0  0  0  0  0  0  0
   -8.8770   -3.0551   -3.5026 H   0  0  0  0  0  0  0  0  0  0  0  0
   -8.0012   -1.7094   -1.9575 H   0  0  0  0  0  0  0  0  0  0  0  0
   -6.7181   -1.1686   -3.0137 H   0  0  0  0  0  0  0  0  0  0  0  0
   -4.7517   -2.5895   -3.6930 H   0  0  0  0  0  0  0  0  0  0  0  0
   -3.8132   -3.4151   -2.4717 H   0  0  0  0  0  0  0  0  0  0  0  0
   -2.4106   -1.4800   -3.3467 H   0  0  0  0  0  0  0  0  0  0  0  0
   -2.8380    0.9556   -1.8266 H   0  0  0  0  0  0  0  0  0  0  0  0
   -1.5391    0.6441   -2.9535 H   0  0  0  0  0  0  0  0  0  0  0  0
   -0.6496   -0.9775   -1.2206 H   0  0  0  0  0  0  0  0  0  0  0  0
   -1.7780   -0.2334   -0.1129 H   0  0  0  0  0  0  0  0  0  0  0  0
    0.3451    1.2224   -1.6188 H   0  0  0  0  0  0  0  0  0  0  0  0
   -0.3406    3.1482   -0.6818 H   0  0  0  0  0  0  0  0  0  0  0  0
   -0.9017    2.3689    0.7778 H   0  0  0  0  0  0  0  0  0  0  0  0
   -1.8754    2.3135   -0.6723 H   0  0  0  0  0  0  0  0  0  0  0  0
    1.1925   -0.3965    0.0572 H   0  0  0  0  0  0  0  0  0  0  0  0
    0.3649    0.5381    1.2803 H   0  0  0  0  0  0  0  0  0  0  0  0
    1.6927    2.4929    0.6606 H   0  0  0  0  0  0  0  0  0  0  0  0
    2.5421    1.5258   -0.5215 H   0  0  0  0  0  0  0  0  0  0  0  0
    2.8556    0.2169    1.8776 H   0  0  0  0  0  0  0  0  0  0  0  0
    4.5232    0.4731    3.4206 H   0  0  0  0  0  0  0  0  0  0  0  0
    5.3535    0.7844    4.9635 H   0  0  0  0  0  0  0  0  0  0  0  0
    6.1266    0.9670    5.2999 H   0  0  0  0  0  0  0  0  0  0  0  0
    7.1921    2.3522    5.2952 H   0  0  0  0  0  0  0  0  0  0  0  0
    6.6667   -0.8412    3.5778 H   0  0  0  0  0  0  0  0  0  0  0  0
    8.0501   -0.5205    2.5592 H   0  0  0  0  0  0  0  0  0  0  0  0
    6.7940    1.2408    1.4072 H   0  0  0  0  0  0  0  0  0  0  0  0
  1  2  1  0  0  0  0
  1 24  1  0  0  0  0
  1 25  1  0  0  0  0
  1 26  1  0  0  0  0
  2 17  1  0  0  0  0
  2 27  1  0  0  0  0
  2 28  1  0  0  0  0
  3  4  1  0  0  0  0
  3 29  1  0  0  0  0
  3 30  1  0  0  0  0
  4 22  1  0  0  0  0
  4 19  2  0  0  0  0
  5 22  1  0  0  0  0
  5  6  1  0  0  0  0
  5 32  1  0  0  0  0
  5 33  1  0  0  0  0
  6  7  1  0  0  0  0
  6 34  1  0  0  0  0
  6 35  1  0  0  0  0
  7  8  1  0  0  0  0
  7  9  1  0  0  0  0
  7 36  1  6  0  0  0
  8 37  1  0  0  0  0
  8 38  1  0  0  0  0
  8 39  1  0  0  0  0
  9 10  1  0  0  0  0
  9 40  1  0  0  0  0
  9 41  1  0  0  0  0
 10 23  1  0  0  0  0
 10 42  1  0  0  0  0
 10 43  1  0  0  0  0
 11 23  1  0  0  0  0
 11 12  1  0  0  0  0
 11 20  2  0  0  0  0
 12 13  1  0  0  0  0
 12 16  1  0  0  0  0
 12 45  1  6  0  0  0
 13 14  1  0  0  0  0
 13 16  1  0  0  0  0
 13 46  1  1  0  0  0
 14 21  1  0  0  0  0
 14 47  1  0  0  0  0
 14 48  1  0  0  0  0
 15 21  1  0  0  0  0
 15 16  1  0  0  0  0
 15 49  1  0  0  0  0
 15 50  1  0  0  0  0
 16 51  1  1  0  0  0
 17  3  1  0  0  0  0
 17 18  2  1  0  0  0
 22 31  1  0  0  0  0
 23 44  1  0  0  0  0
M  END
>  <score>
0.42170125246047974

$$$$
Z4328880052
 OpenBabel08202115463D

 45 46  0  0  0  0  0  0  0  0999 V2000
   -6.7468   -3.7131   -3.8472 C   0  0  0  0  0  0  0  0  0  0  0  0
   -5.5789   -1.9874   -2.7224 C   0  0  0  0  0  0  0  0  0  0  0  0
   -4.3485   -1.6665   -1.9558 C   0  0  0  0  0  0  0  0  0  0  0  0
   -3.4717   -2.6803   -1.6185 C   0  0  0  0  0  0  0  0  0  0  0  0
   -2.3175   -2.3905   -0.9075 C   0  0  0  0  0  0  0  0  0  0  0  0
   -2.0463   -1.0885   -0.5313 C   0  0  0  0  0  0  0  0  0  0  0  0
   -2.9256   -0.0717   -0.8695 C   0  0  0  0  0  0  0  0  0  0  0  0
   -2.6221    1.3749   -0.4573 C   0  0  0  0  0  0  0  0  0  0  0  0
   -1.2872    1.5051    0.2500 C   0  0  0  0  0  0  0  0  0  0  0  0
    1.0599    1.8120   -0.1288 C   0  0  0  0  0  0  0  0  0  0  0  0
    3.4412    2.4257    2.3233 C   0  0  0  0  0  0  0  0  0  0  0  0
    3.9479    1.1850    3.0172 C   0  0  0  0  0  0  0  0  0  0  0  0
    5.3789   -0.7719    2.8962 C   0  0  0  0  0  0  0  0  0  0  0  0
    5.9548    1.2236    1.6525 C   0  0  0  0  0  0  0  0  0  0  0  0
    3.1188    2.0790   -0.1600 C   0  0  0  0  0  0  0  0  0  0  0  0
   -4.0763   -0.3608   -1.5784 C   0  0  0  0  0  0  0  0  0  0  0  0
   -5.6796   -3.2958   -2.9816 O   0  0  0  0  0  0  0  0  0  0  0  0
   -6.3955   -1.1757   -3.0743 O   0  0  0  0  0  0  0  0  0  0  0  0
   -1.2129    1.5065    1.4781 O   0  0  0  0  0  0  0  0  0  0  0  0
   -3.6263    1.7751    0.3760 F   0  0  0  0  0  0  0  0  0  0  0  0
   -2.6965    2.1848   -1.5533 F   0  0  0  0  0  0  0  0  0  0  0  0
   -0.2005    1.6178   -0.5567 N   0  0  0  0  0  0  0  0  0  0  0  0
    1.3573    1.9461    1.1503 N   0  0  0  0  0  0  0  0  0  0  0  0
    2.7045    2.1224    1.1036 N   0  0  0  0  0  0  0  0  0  0  0  0
    4.8558    0.3901    2.1628 N   0  0  0  0  0  0  0  0  0  0  0  0
    2.1009    1.8822   -0.9775 N   0  0  0  0  0  0  0  0  0  0  0  0
   -7.6857   -3.4323   -3.4176 H   0  0  0  0  0  0  0  0  0  0  0  0
   -6.7135   -4.7758   -3.9673 H   0  0  0  0  0  0  0  0  0  0  0  0
   -6.6365   -3.2421   -4.8016 H   0  0  0  0  0  0  0  0  0  0  0  0
   -3.6779   -3.6605   -1.8981 H   0  0  0  0  0  0  0  0  0  0  0  0
   -1.6557   -3.1527   -0.6572 H   0  0  0  0  0  0  0  0  0  0  0  0
   -1.1824   -0.8716    0.0056 H   0  0  0  0  0  0  0  0  0  0  0  0
   -0.3456    1.5529   -1.5238 H   0  0  0  0  0  0  0  0  0  0  0  0
    2.7939    2.9528    2.9927 H   0  0  0  0  0  0  0  0  0  0  0  0
    4.2775    3.0448    2.0737 H   0  0  0  0  0  0  0  0  0  0  0  0
    3.1103    0.5765    3.2872 H   0  0  0  0  0  0  0  0  0  0  0  0
    4.4764    1.4774    3.9005 H   0  0  0  0  0  0  0  0  0  0  0  0
    5.9289   -0.4368    3.7507 H   0  0  0  0  0  0  0  0  0  0  0  0
    6.0240   -1.3365    2.2560 H   0  0  0  0  0  0  0  0  0  0  0  0
    4.5644   -1.3879    3.2157 H   0  0  0  0  0  0  0  0  0  0  0  0
    6.4912    1.6497    2.4745 H   0  0  0  0  0  0  0  0  0  0  0  0
    5.5547    2.0072    1.0435 H   0  0  0  0  0  0  0  0  0  0  0  0
    6.6179    0.6205    1.0683 H   0  0  0  0  0  0  0  0  0  0  0  0
    4.1083    2.1854   -0.4622 H   0  0  0  0  0  0  0  0  0  0  0  0
   -4.7381    0.4015   -1.8287 H   0  0  0  0  0  0  0  0  0  0  0  0
  1 17  1  0  0  0  0
  1 27  1  0  0  0  0
  1 28  1  0  0  0  0
  1 29  1  0  0  0  0
  2 17  1  0  0  0  0
  2  3  1  0  0  0  0
  2 18  2  0  0  0  0
  3 16  1  0  0  0  0
  3  4  2  0  0  0  0
  4  5  1  0  0  0  0
  4 30  1  0  0  0  0
  5 31  1  0  0  0  0
  5  6  2  0  0  0  0
  6  7  1  0  0  0  0
  6 32  1  0  0  0  0
  7  8  1  0  0  0  0
  7 16  2  0  0  0  0
  8 20  1  0  0  0  0
  8 21  1  0  0  0  0
  8  9  1  0  0  0  0
  9 22  1  0  0  0  0
  9 19  2  0  0  0  0
 10 22  1  0  0  0  0
 10 26  1  0  0  0  0
 10 23  2  0  0  0  0
 11 24  1  0  0  0  0
 11 12  1  0  0  0  0
 11 34  1  0  0  0  0
 11 35  1  0  0  0  0
 12 25  1  0  0  0  0
 12 36  1  0  0  0  0
 12 37  1  0  0  0  0
 13 25  1  0  0  0  0
 13 38  1  0  0  0  0
 13 39  1  0  0  0  0
 13 40  1  0  0  0  0
 14 25  1  0  0  0  0
 14 41  1  0  0  0  0
 14 42  1  0  0  0  0
 14 43  1  0  0  0  0
 15 24  1  0  0  0  0
 15 44  1  0  0  0  0
 15 26  2  0  0  0  0
 16 45  1  0  0  0  0
 22 33  1  0  0  0  0
 23 24  1  0  0  0  0
M  END
>  <score>
0.42187982797622681

$$$$
PV-003954624924
 OpenBabel08202115463D

 50 51  0  0  0  0  0  0  0  0999 V2000
   -7.3757   -1.2715   -2.3037 C   0  0  0  0  0  0  0  0  0  0  0  0
   -5.9738   -1.7103   -2.6122 C   0  0  0  0  0  0  0  0  0  0  0  0
   -5.5637   -2.6427   -3.4983 C   0  0  0  0  0  0  0  0  0  0  0  0
   -6.2147   -3.5658   -4.4700 C   0  0  0  0  0  0  0  0  0  0  0  0
   -3.8493   -1.7754   -2.4870 C   0  0  0  0  0  0  0  0  0  0  0  0
   -2.3840   -1.6040   -2.1875 C   0  0  0  0  0  0  0  0  0  0  0  0
   -2.0958   -0.4151   -1.2853 C   0  0  0  0  0  0  0  0  0  0  0  0
   -0.6140   -0.1883   -1.0569 C   0  0  0  0  0  0  0  0  0  0  0  0
    1.0957    1.0401    0.2325 C   0  0  1  0  0  0  0  0  0  0  0  0
    1.2718    2.5221    0.3988 C   0  0  0  0  0  0  0  0  0  0  0  0
    1.5173    0.2680    1.4721 C   0  0  0  0  0  0  0  0  0  0  0  0
    3.3164    1.5952    2.4819 C   0  0  0  0  0  0  0  0  0  0  0  0
    4.8009    1.8018    2.5640 C   0  0  1  0  0  0  0  0  0  0  0  0
    5.1025    3.2313    2.4536 C   0  0  0  0  0  0  0  0  0  0  0  0
    5.3718    1.2129    3.8430 C   0  0  0  0  0  0  0  0  0  0  0  0
    5.5605   -0.2483    3.4845 C   0  0  0  0  0  0  0  0  0  0  0  0
    5.5312    0.9983    1.5010 C   0  0  0  0  0  0  0  0  0  0  0  0
   -4.1860   -2.6963   -3.4281 O   0  0  0  0  0  0  0  0  0  0  0  0
    0.2260   -0.8049   -1.6914 O   0  0  0  0  0  0  0  0  0  0  0  0
    0.3852    2.9999    1.4019 O   0  0  0  0  0  0  0  0  0  0  0  0
    2.5380    2.3879    2.9859 O   0  0  0  0  0  0  0  0  0  0  0  0
    5.6661   -0.3174    2.0501 O   0  0  0  0  0  0  0  0  0  0  0  0
   -0.3008    0.7236   -0.1229 N   0  0  0  0  0  0  0  0  0  0  0  0
    2.9182    0.4999    1.8286 N   0  0  0  0  0  0  0  0  0  0  0  0
    5.3109    4.3482    2.4102 N   0  0  0  0  0  0  0  0  0  0  0  0
   -4.8775   -1.1612   -1.9704 N   0  0  0  0  0  0  0  0  0  0  0  0
   -7.3494   -0.3638   -1.7377 H   0  0  0  0  0  0  0  0  0  0  0  0
   -7.8702   -2.0315   -1.7356 H   0  0  0  0  0  0  0  0  0  0  0  0
   -7.9068   -1.1063   -3.2177 H   0  0  0  0  0  0  0  0  0  0  0  0
   -5.9337   -4.5741   -4.2482 H   0  0  0  0  0  0  0  0  0  0  0  0
   -5.9002   -3.3182   -5.4624 H   0  0  0  0  0  0  0  0  0  0  0  0
   -7.2777   -3.4678   -4.3974 H   0  0  0  0  0  0  0  0  0  0  0  0
   -1.8616   -1.4653   -3.1109 H   0  0  0  0  0  0  0  0  0  0  0  0
   -2.0288   -2.4910   -1.7059 H   0  0  0  0  0  0  0  0  0  0  0  0
   -2.5643   -0.5847   -0.3384 H   0  0  0  0  0  0  0  0  0  0  0  0
   -2.5092    0.4627   -1.7362 H   0  0  0  0  0  0  0  0  0  0  0  0
   -1.0250    1.1956    0.3389 H   0  0  0  0  0  0  0  0  0  0  0  0
    1.7250    0.7271   -0.5743 H   0  0  0  0  0  0  0  0  0  0  0  0
    1.0573    3.0119   -0.5281 H   0  0  0  0  0  0  0  0  0  0  0  0
    2.2809    2.7301    0.6876 H   0  0  0  0  0  0  0  0  0  0  0  0
    0.4965    2.4807    2.2017 H   0  0  0  0  0  0  0  0  0  0  0  0
    1.3787   -0.7770    1.2887 H   0  0  0  0  0  0  0  0  0  0  0  0
    0.9001    0.5718    2.2916 H   0  0  0  0  0  0  0  0  0  0  0  0
    3.5870   -0.1716    1.5794 H   0  0  0  0  0  0  0  0  0  0  0  0
    4.6872    1.3244    4.6577 H   0  0  0  0  0  0  0  0  0  0  0  0
    6.3050    1.6714    4.0953 H   0  0  0  0  0  0  0  0  0  0  0  0
    4.7207   -0.8205    3.8193 H   0  0  0  0  0  0  0  0  0  0  0  0
    6.4534   -0.6257    3.9375 H   0  0  0  0  0  0  0  0  0  0  0  0
    6.4935    1.4232    1.3051 H   0  0  0  0  0  0  0  0  0  0  0  0
    4.9621    0.9701    0.5954 H   0  0  0  0  0  0  0  0  0  0  0  0
  1  2  1  0  0  0  0
  1 27  1  0  0  0  0
  1 28  1  0  0  0  0
  1 29  1  0  0  0  0
  2 26  1  0  0  0  0
  2  3  2  0  0  0  0
  3  4  1  0  0  0  0
  3 18  1  0  0  0  0
  4 30  1  0  0  0  0
  4 31  1  0  0  0  0
  4 32  1  0  0  0  0
  5 18  1  0  0  0  0
  5  6  1  0  0  0  0
  5 26  2  0  0  0  0
  6  7  1  0  0  0  0
  6 33  1  0  0  0  0
  6 34  1  0  0  0  0
  7  8  1  0  0  0  0
  7 35  1  0  0  0  0
  7 36  1  0  0  0  0
  8 23  1  0  0  0  0
  8 19  2  0  0  0  0
  9 23  1  0  0  0  0
  9 10  1  0  0  0  0
  9 11  1  0  0  0  0
  9 38  1  6  0  0  0
 10 20  1  0  0  0  0
 10 39  1  0  0  0  0
 10 40  1  0  0  0  0
 11 24  1  0  0  0  0
 11 42  1  0  0  0  0
 11 43  1  0  0  0  0
 12 24  1  0  0  0  0
 12 13  1  0  0  0  0
 12 21  2  0  0  0  0
 13 14  1  6  0  0  0
 13 15  1  0  0  0  0
 13 17  1  0  0  0  0
 14 25  3  0  0  0  0
 15 16  1  0  0  0  0
 15 45  1  0  0  0  0
 15 46  1  0  0  0  0
 16 22  1  0  0  0  0
 16 47  1  0  0  0  0
 16 48  1  0  0  0  0
 17 22  1  0  0  0  0
 17 49  1  0  0  0  0
 17 50  1  0  0  0  0
 20 41  1  0  0  0  0
 23 37  1  0  0  0  0
 24 44  1  0  0  0  0
M  END
>  <score>
0.42207789421081543

$$$$
Z4040005394
 OpenBabel08202115463D

 44 45  0  0  0  0  0  0  0  0999 V2000
   -6.4939   -1.1312   -1.8360 C   0  0  0  0  0  0  0  0  0  0  0  0
   -6.4038   -2.5261   -3.9058 C   0  0  0  0  0  0  0  0  0  0  0  0
   -4.3503   -1.9245   -2.7593 C   0  0  0  0  0  0  0  0  0  0  0  0
   -3.6095   -0.9147   -1.9172 C   0  0  0  0  0  0  0  0  0  0  0  0
   -1.4225   -0.7581   -0.9179 C   0  0  0  0  0  0  0  0  0  0  0  0
   -1.7270    0.5444   -0.5704 C   0  0  0  0  0  0  0  0  0  0  0  0
   -0.7867    1.3249    0.0839 C   0  0  0  0  0  0  0  0  0  0  0  0
    0.4572    0.8024    0.3840 C   0  0  0  0  0  0  0  0  0  0  0  0
    1.4441    1.7043    0.9836 C   0  0  0  0  0  0  0  0  0  0  0  0
    3.7547    1.8471    1.5744 C   0  0  0  0  0  0  0  0  0  0  0  0
    4.9164    0.9595    1.9847 C   0  0  2  0  0  0  0  0  0  0  0  0
    7.0708    1.7781    2.4935 C   0  0  0  0  0  0  0  0  0  0  0  0
    6.5788    0.9479    3.6879 C   0  0  0  0  0  0  0  0  0  0  0  0
    5.0835    0.9623    3.5071 C   0  0  1  0  0  0  0  0  0  0  0  0
    0.7624   -0.5041    0.0354 C   0  0  0  0  0  0  0  0  0  0  0  0
   -0.1751   -1.2824   -0.6170 C   0  0  0  0  0  0  0  0  0  0  0  0
   -5.7356   -1.5034   -3.0590 N   0  0  0  0  0  0  0  0  0  0  0  0
   -2.3652   -1.5408   -1.5677 O   0  0  0  0  0  0  0  0  0  0  0  0
    1.3154    2.8839    1.1869 O   0  0  0  0  0  0  0  0  0  0  0  0
    2.5764    1.0460    1.3041 O   0  0  0  0  0  0  0  0  0  0  0  0
    6.1613    1.4823    1.4687 O   0  0  0  0  0  0  0  0  0  0  0  0
    4.5175    2.1192    4.0750 F   0  0  0  0  0  0  0  0  0  0  0  0
   -6.9551   -0.1762   -1.9785 H   0  0  0  0  0  0  0  0  0  0  0  0
   -5.8247   -1.0830   -1.0025 H   0  0  0  0  0  0  0  0  0  0  0  0
   -7.2479   -1.8664   -1.6466 H   0  0  0  0  0  0  0  0  0  0  0  0
   -5.7092   -2.9009   -4.6283 H   0  0  0  0  0  0  0  0  0  0  0  0
   -7.2373   -2.0826   -4.4094 H   0  0  0  0  0  0  0  0  0  0  0  0
   -6.7460   -3.3310   -3.2894 H   0  0  0  0  0  0  0  0  0  0  0  0
   -3.8239   -2.0542   -3.6818 H   0  0  0  0  0  0  0  0  0  0  0  0
   -4.3810   -2.8549   -2.2318 H   0  0  0  0  0  0  0  0  0  0  0  0
   -4.1699   -0.6806   -1.0362 H   0  0  0  0  0  0  0  0  0  0  0  0
   -3.4330   -0.0198   -2.4766 H   0  0  0  0  0  0  0  0  0  0  0  0
   -2.6616    0.9389   -0.7997 H   0  0  0  0  0  0  0  0  0  0  0  0
   -1.0172    2.3038    0.3490 H   0  0  0  0  0  0  0  0  0  0  0  0
    3.5396    2.5342    2.3659 H   0  0  0  0  0  0  0  0  0  0  0  0
    4.0212    2.3907    0.6921 H   0  0  0  0  0  0  0  0  0  0  0  0
    4.7497   -0.0351    1.6270 H   0  0  0  0  0  0  0  0  0  0  0  0
    7.0541    2.8226    2.7253 H   0  0  0  0  0  0  0  0  0  0  0  0
    8.0629    1.4900    2.2147 H   0  0  0  0  0  0  0  0  0  0  0  0
    6.9625   -0.0501    3.6482 H   0  0  0  0  0  0  0  0  0  0  0  0
    6.8596    1.4019    4.6151 H   0  0  0  0  0  0  0  0  0  0  0  0
    4.6358    0.0942    3.9439 H   0  0  0  0  0  0  0  0  0  0  0  0
    1.6969   -0.8986    0.2647 H   0  0  0  0  0  0  0  0  0  0  0  0
    0.0554   -2.2613   -0.8821 H   0  0  0  0  0  0  0  0  0  0  0  0
  1 17  1  0  0  0  0
  1 23  1  0  0  0  0
  1 24  1  0  0  0  0
  1 25  1  0  0  0  0
  2 17  1  0  0  0  0
  2 26  1  0  0  0  0
  2 27  1  0  0  0  0
  2 28  1  0  0  0  0
  3 17  1  0  0  0  0
  3  4  1  0  0  0  0
  3 29  1  0  0  0  0
  3 30  1  0  0  0  0
  4 18  1  0  0  0  0
  4 31  1  0  0  0  0
  4 32  1  0  0  0  0
  5 18  1  0  0  0  0
  5 16  1  0  0  0  0
  5  6  2  0  0  0  0
  6  7  1  0  0  0  0
  6 33  1  0  0  0  0
  7 34  1  0  0  0  0
  7  8  2  0  0  0  0
  8  9  1  0  0  0  0
  8 15  1  0  0  0  0
  9 20  1  0  0  0  0
  9 19  2  0  0  0  0
 10 20  1  0  0  0  0
 10 11  1  0  0  0  0
 10 35  1  0  0  0  0
 10 36  1  0  0  0  0
 11 21  1  0  0  0  0
 11 14  1  0  0  0  0
 11 37  1  6  0  0  0
 12 21  1  0  0  0  0
 12 13  1  0  0  0  0
 12 38  1  0  0  0  0
 12 39  1  0  0  0  0
 13 14  1  0  0  0  0
 13 40  1  0  0  0  0
 13 41  1  0  0  0  0
 14 22  1  0  0  0  0
 14 42  1  1  0  0  0
 15 43  1  0  0  0  0
 15 16  2  0  0  0  0
 16 44  1  0  0  0  0
M  END
>  <score>
0.4221576452255249

$$$$
PV-003750656889
 OpenBabel08202115463D

 48 49  0  0  0  0  0  0  0  0999 V2000
    5.4576    3.0130    3.4231 C   0  0  0  0  0  0  0  0  0  0  0  0
    4.5998    1.1767    2.2387 C   0  0  0  0  0  0  0  0  0  0  0  0
    5.4628    0.1873    3.2125 C   0  0  0  0  0  0  0  0  0  0  0  0
    5.2711    1.5698    0.9179 C   0  0  0  0  0  0  0  0  0  0  0  0
    3.2404    0.5680    1.9204 C   0  0  0  0  0  0  0  0  0  0  0  0
    2.3296    1.5126    1.1760 C   0  0  0  0  0  0  0  0  0  0  0  0
    0.0133    1.8754    0.3556 C   0  0  1  0  0  0  0  0  0  0  0  0
   -0.5020    1.5207   -1.0073 C   0  0  0  0  0  0  0  0  0  0  0  0
   -1.3940    1.3954    0.1879 C   0  0  1  0  0  0  0  0  0  0  0  0
   -1.9317    0.0550    0.6241 C   0  0  0  0  0  0  0  0  0  0  0  0
   -2.8765   -1.2520   -1.2371 C   0  0  0  0  0  0  0  0  0  0  0  0
   -4.1063   -1.7583   -1.8950 C   0  0  0  0  0  0  0  0  0  0  0  0
   -4.0437   -2.6417   -2.9558 C   0  0  0  0  0  0  0  0  0  0  0  0
   -5.2240   -3.0759   -3.5302 C   0  0  0  0  0  0  0  0  0  0  0  0
   -5.2062   -4.0380   -4.6945 C   0  0  0  0  0  0  0  0  0  0  0  0
   -6.4205   -2.6127   -3.0185 C   0  0  0  0  0  0  0  0  0  0  0  0
   -6.3912   -1.7320   -1.9514 C   0  0  0  0  0  0  0  0  0  0  0  0
    4.2865    2.3572    2.9508 O   0  0  0  0  0  0  0  0  0  0  0  0
    2.6778    2.5964    0.7471 O   0  0  0  0  0  0  0  0  0  0  0  0
   -1.7724   -1.5636   -1.6522 O   0  0  0  0  0  0  0  0  0  0  0  0
    1.0750    1.0952    0.9995 N   0  0  0  0  0  0  0  0  0  0  0  0
   -3.0531   -0.4432   -0.1744 N   0  0  0  0  0  0  0  0  0  0  0  0
   -5.2544   -1.2993   -1.3877 N   0  0  0  0  0  0  0  0  0  0  0  0
   -6.3315   -4.7567   -4.7475 F   0  0  0  0  0  0  0  0  0  0  0  0
   -4.2507   -4.9998   -4.6562 F   0  0  0  0  0  0  0  0  0  0  0  0
    5.9676    2.3778    4.1168 H   0  0  0  0  0  0  0  0  0  0  0  0
    5.1833    3.9253    3.9104 H   0  0  0  0  0  0  0  0  0  0  0  0
    6.1026    3.2293    2.5972 H   0  0  0  0  0  0  0  0  0  0  0  0
    4.8032    0.0163    4.0375 H   0  0  0  0  0  0  0  0  0  0  0  0
    6.3660    0.6609    3.5361 H   0  0  0  0  0  0  0  0  0  0  0  0
    5.6989   -0.7298    2.7144 H   0  0  0  0  0  0  0  0  0  0  0  0
    5.5398    0.6865    0.3771 H   0  0  0  0  0  0  0  0  0  0  0  0
    6.1506    2.1439    1.1222 H   0  0  0  0  0  0  0  0  0  0  0  0
    4.5917    2.1533    0.3325 H   0  0  0  0  0  0  0  0  0  0  0  0
    2.7672    0.2920    2.8395 H   0  0  0  0  0  0  0  0  0  0  0  0
    3.3903   -0.3047    1.3197 H   0  0  0  0  0  0  0  0  0  0  0  0
    0.8455    0.1996    1.3246 H   0  0  0  0  0  0  0  0  0  0  0  0
    0.0871    2.9299    0.5212 H   0  0  0  0  0  0  0  0  0  0  0  0
   -0.1445    0.6421   -1.5025 H   0  0  0  0  0  0  0  0  0  0  0  0
   -0.6796    2.2903   -1.7292 H   0  0  0  0  0  0  0  0  0  0  0  0
   -2.1201    2.1782    0.2587 H   0  0  0  0  0  0  0  0  0  0  0  0
   -2.2580    0.1412    1.6394 H   0  0  0  0  0  0  0  0  0  0  0  0
   -1.1367   -0.6586    0.5637 H   0  0  0  0  0  0  0  0  0  0  0  0
   -3.9639   -0.1792    0.0728 H   0  0  0  0  0  0  0  0  0  0  0  0
   -3.1260   -2.9736   -3.3154 H   0  0  0  0  0  0  0  0  0  0  0  0
   -5.0995   -3.4605   -5.5889 H   0  0  0  0  0  0  0  0  0  0  0  0
   -7.3260   -2.9200   -3.4274 H   0  0  0  0  0  0  0  0  0  0  0  0
   -7.2952   -1.3890   -1.5681 H   0  0  0  0  0  0  0  0  0  0  0  0
  1 18  1  0  0  0  0
  1 26  1  0  0  0  0
  1 27  1  0  0  0  0
  1 28  1  0  0  0  0
  2 18  1  0  0  0  0
  2  3  1  0  0  0  0
  2  4  1  0  0  0  0
  2  5  1  0  0  0  0
  3 29  1  0  0  0  0
  3 30  1  0  0  0  0
  3 31  1  0  0  0  0
  4 32  1  0  0  0  0
  4 33  1  0  0  0  0
  4 34  1  0  0  0  0
  5  6  1  0  0  0  0
  5 35  1  0  0  0  0
  5 36  1  0  0  0  0
  6 21  1  0  0  0  0
  6 19  2  0  0  0  0
  7 21  1  0  0  0  0
  7  8  1  0  0  0  0
  7  9  1  0  0  0  0
  7 38  1  1  0  0  0
  8  9  1  0  0  0  0
  8 39  1  0  0  0  0
  8 40  1  0  0  0  0
  9 10  1  0  0  0  0
  9 41  1  1  0  0  0
 10 22  1  0  0  0  0
 10 42  1  0  0  0  0
 10 43  1  0  0  0  0
 11 22  1  0  0  0  0
 11 12  1  0  0  0  0
 11 20  2  0  0  0  0
 12 23  1  0  0  0  0
 12 13  2  0  0  0  0
 13 14  1  0  0  0  0
 13 45  1  0  0  0  0
 14 15  1  0  0  0  0
 14 16  2  0  0  0  0
 15 24  1  0  0  0  0
 15 25  1  0  0  0  0
 15 46  1  0  0  0  0
 16 17  1  0  0  0  0
 16 47  1  0  0  0  0
 17 48  1  0  0  0  0
 17 23  2  0  0  0  0
 21 37  1  0  0  0  0
 22 44  1  0  0  0  0
M  END
>  <score>
0.42218136787414551

$$$$
PV-003135331567
 OpenBabel08202115463D

 49 52  0  0  0  0  0  0  0  0999 V2000
   -4.6513   -2.1740   -0.7556 O   0  0  0  0  0  0  0  0  0  0  0  0
    4.4991    0.3387    1.4441 O   0  0  0  0  0  0  0  0  0  0  0  0
   -3.9003   -1.8582   -1.6637 C   0  0  0  0  0  0  0  0  0  0  0  0
   -2.5687   -0.5587   -0.1475 C   0  0  0  0  0  0  0  0  0  0  0  0
   -1.3370    0.3454   -0.0941 C   0  0  0  0  0  0  0  0  0  0  0  0
   -0.8813    0.8077    1.2677 C   0  0  0  0  0  0  0  0  0  0  0  0
    1.6459    0.7689    1.5578 C   0  0  0  0  0  0  0  0  0  0  0  0
    2.5878    1.7616    1.4499 C   0  0  0  0  0  0  0  0  0  0  0  0
    4.0767    1.6845    1.6235 C   0  0  1  0  0  0  0  0  0  0  0  0
    4.4454    2.1802    3.0189 C   0  0  0  0  0  0  0  0  0  0  0  0
    5.9447    2.0056    3.2509 C   0  0  0  0  0  0  0  0  0  0  0  0
    6.3844    0.5869    2.9523 C   0  0  0  0  0  0  0  0  0  0  0  0
    5.9211    0.1707    1.5547 C   0  0  0  0  0  0  0  0  0  0  0  0
   -1.1344    1.3163   -1.2189 C   0  0  0  0  0  0  0  0  0  0  0  0
   -0.2546    0.1114   -1.1005 C   0  0  0  0  0  0  0  0  0  0  0  0
   -4.1273   -2.3504   -3.0798 C   0  0  1  0  0  0  0  0  0  0  0  0
   -4.8432   -3.6546   -3.2681 C   0  0  0  0  0  0  0  0  0  0  0  0
   -5.5114   -2.3705   -3.6481 C   0  0  1  0  0  0  0  0  0  0  0  0
   -6.7902   -1.8254   -3.0215 C   0  0  0  0  0  0  0  0  0  0  0  0
   -2.8323   -1.0644   -1.4863 N   0  0  0  0  0  0  0  0  0  0  0  0
    0.4693    1.3718    1.3015 N   0  0  0  0  0  0  0  0  0  0  0  0
    1.9360    2.9207    1.1385 N   0  0  0  0  0  0  0  0  0  0  0  0
    0.6519    2.6845    1.0499 N   0  0  0  0  0  0  0  0  0  0  0  0
   -7.8406   -2.5951   -3.4026 F   0  0  0  0  0  0  0  0  0  0  0  0
   -7.0331   -0.5779   -3.4937 F   0  0  0  0  0  0  0  0  0  0  0  0
   -2.2468   -0.8321   -2.2371 H   0  0  0  0  0  0  0  0  0  0  0  0
   -2.4127   -1.3897    0.5083 H   0  0  0  0  0  0  0  0  0  0  0  0
   -3.4193    0.0010    0.1813 H   0  0  0  0  0  0  0  0  0  0  0  0
   -0.9086   -0.0314    1.9309 H   0  0  0  0  0  0  0  0  0  0  0  0
   -1.5639    1.5567    1.6110 H   0  0  0  0  0  0  0  0  0  0  0  0
    1.8064   -0.2325    1.7879 H   0  0  0  0  0  0  0  0  0  0  0  0
    4.5541    2.3034    0.8928 H   0  0  0  0  0  0  0  0  0  0  0  0
    3.9049    1.6165    3.7503 H   0  0  0  0  0  0  0  0  0  0  0  0
    4.1908    3.2158    3.1066 H   0  0  0  0  0  0  0  0  0  0  0  0
    6.1683    2.2323    4.2724 H   0  0  0  0  0  0  0  0  0  0  0  0
    6.4772    2.6777    2.6110 H   0  0  0  0  0  0  0  0  0  0  0  0
    7.4518    0.5305    3.0016 H   0  0  0  0  0  0  0  0  0  0  0  0
    5.9579   -0.0747    3.6771 H   0  0  0  0  0  0  0  0  0  0  0  0
    6.4088    0.7800    0.8227 H   0  0  0  0  0  0  0  0  0  0  0  0
    6.1714   -0.8563    1.3887 H   0  0  0  0  0  0  0  0  0  0  0  0
   -0.7378    2.2900   -1.0202 H   0  0  0  0  0  0  0  0  0  0  0  0
   -1.8538    1.3779   -2.0086 H   0  0  0  0  0  0  0  0  0  0  0  0
   -0.3447   -0.6876   -1.8063 H   0  0  0  0  0  0  0  0  0  0  0  0
    0.7713    0.2245   -0.8180 H   0  0  0  0  0  0  0  0  0  0  0  0
   -3.3386   -2.1451   -3.7732 H   0  0  0  0  0  0  0  0  0  0  0  0
   -5.1859   -4.2045   -2.4166 H   0  0  0  0  0  0  0  0  0  0  0  0
   -4.5224   -4.3361   -4.0280 H   0  0  0  0  0  0  0  0  0  0  0  0
   -5.5052   -2.2210   -4.7076 H   0  0  0  0  0  0  0  0  0  0  0  0
   -6.6784   -1.8221   -1.9574 H   0  0  0  0  0  0  0  0  0  0  0  0
  3 20  1  0  0  0  0
  3 16  1  0  0  0  0
  3  1  2  0  0  0  0
  4 20  1  0  0  0  0
  4  5  1  0  0  0  0
  4 27  1  0  0  0  0
  4 28  1  0  0  0  0
  5  6  1  0  0  0  0
  5 14  1  0  0  0  0
  5 15  1  0  0  0  0
  6 21  1  0  0  0  0
  6 29  1  0  0  0  0
  6 30  1  0  0  0  0
  7 21  1  0  0  0  0
  7 31  1  0  0  0  0
  7  8  2  0  0  0  0
  8  9  1  0  0  0  0
  8 22  1  0  0  0  0
  9 10  1  0  0  0  0
  9  2  1  0  0  0  0
  9 32  1  6  0  0  0
 10 11  1  0  0  0  0
 10 33  1  0  0  0  0
 10 34  1  0  0  0  0
 11 12  1  0  0  0  0
 11 35  1  0  0  0  0
 11 36  1  0  0  0  0
 12 13  1  0  0  0  0
 12 37  1  0  0  0  0
 12 38  1  0  0  0  0
 13  2  1  0  0  0  0
 13 39  1  0  0  0  0
 13 40  1  0  0  0  0
 14 15  1  0  0  0  0
 14 41  1  0  0  0  0
 14 42  1  0  0  0  0
 15 43  1  0  0  0  0
 15 44  1  0  0  0  0
 16 17  1  0  0  0  0
 16 18  1  0  0  0  0
 16 45  1  6  0  0  0
 17 18  1  0  0  0  0
 17 46  1  0  0  0  0
 17 47  1  0  0  0  0
 18 19  1  0  0  0  0
 18 48  1  6  0  0  0
 19 24  1  0  0  0  0
 19 25  1  0  0  0  0
 19 49  1  0  0  0  0
 20 26  1  0  0  0  0
 21 23  1  0  0  0  0
 22 23  2  0  0  0  0
M  END
>  <score>
0.42221552133560181

$$$$
Z3384196286
 OpenBabel08202115463D

 45 46  0  0  0  0  0  0  0  0999 V2000
    4.7097   -0.2865    3.2432 C   0  0  0  0  0  0  0  0  0  0  0  0
    4.9377    1.1690    2.8693 C   0  0  0  0  0  0  0  0  0  0  0  0
    4.7966    2.0561    4.0955 C   0  0  0  0  0  0  0  0  0  0  0  0
    3.9642    1.6147    1.7743 C   0  0  0  0  0  0  0  0  0  0  0  0
    2.5343    1.0369    1.8964 C   0  0  0  0  0  0  0  0  0  0  0  0
    1.9544    1.8562   -0.3760 C   0  0  0  0  0  0  0  0  0  0  0  0
    0.4774    1.9478   -0.1758 C   0  0  0  0  0  0  0  0  0  0  0  0
   -1.4379    0.6444   -0.6635 C   0  0  0  0  0  0  0  0  0  0  0  0
   -1.9518   -0.4532   -1.5614 C   0  0  0  0  0  0  0  0  0  0  0  0
   -4.0572   -1.5498   -2.1757 C   0  0  0  0  0  0  0  0  0  0  0  0
   -5.5285   -1.6867   -1.8733 C   0  0  0  0  0  0  0  0  0  0  0  0
   -6.5319   -2.4130   -4.0765 C   0  0  0  0  0  0  0  0  0  0  0  0
   -6.5697   -4.4524   -3.6880 C   0  0  0  0  0  0  0  0  0  0  0  0
    4.0551    0.8161    0.4564 C   0  0  0  0  0  0  0  0  0  0  0  0
    2.5714    0.7824    0.4385 N   0  0  0  0  0  0  0  0  0  0  0  0
   -3.3991   -0.6367   -1.4558 N   0  0  0  0  0  0  0  0  0  0  0  0
   -6.1593   -2.6115   -2.8147 N   0  0  0  0  0  0  0  0  0  0  0  0
   -6.8021   -3.5617   -4.6686 N   0  0  0  0  0  0  0  0  0  0  0  0
   -6.1728   -3.9423   -2.5370 N   0  0  0  0  0  0  0  0  0  0  0  0
   -0.1217    0.8153   -0.8248 O   0  0  0  0  0  0  0  0  0  0  0  0
   -2.1038    1.2861    0.0968 O   0  0  0  0  0  0  0  0  0  0  0  0
   -3.5192   -2.2381   -3.0273 O   0  0  0  0  0  0  0  0  0  0  0  0
    4.8114   -0.8993    2.3719 H   0  0  0  0  0  0  0  0  0  0  0  0
    3.7252   -0.4009    3.6464 H   0  0  0  0  0  0  0  0  0  0  0  0
    5.4320   -0.5841    3.9745 H   0  0  0  0  0  0  0  0  0  0  0  0
    5.9343    1.2690    2.4929 H   0  0  0  0  0  0  0  0  0  0  0  0
    5.4419    1.6991    4.8708 H   0  0  0  0  0  0  0  0  0  0  0  0
    3.7828    2.0334    4.4370 H   0  0  0  0  0  0  0  0  0  0  0  0
    5.0656    3.0601    3.8419 H   0  0  0  0  0  0  0  0  0  0  0  0
    4.0141    2.6777    1.6631 H   0  0  0  0  0  0  0  0  0  0  0  0
    2.4607    0.1563    2.4998 H   0  0  0  0  0  0  0  0  0  0  0  0
    1.7937    1.7446    2.2055 H   0  0  0  0  0  0  0  0  0  0  0  0
    2.1490    1.6579   -1.4093 H   0  0  0  0  0  0  0  0  0  0  0  0
    2.3964    2.7914   -0.1024 H   0  0  0  0  0  0  0  0  0  0  0  0
    0.1065    2.8537   -0.6079 H   0  0  0  0  0  0  0  0  0  0  0  0
    0.2496    1.9313    0.8695 H   0  0  0  0  0  0  0  0  0  0  0  0
   -1.4700   -1.3697   -1.2919 H   0  0  0  0  0  0  0  0  0  0  0  0
   -1.7110   -0.2075   -2.5746 H   0  0  0  0  0  0  0  0  0  0  0  0
   -3.9037   -0.0702   -0.8354 H   0  0  0  0  0  0  0  0  0  0  0  0
   -5.9957   -0.7275   -1.9551 H   0  0  0  0  0  0  0  0  0  0  0  0
   -5.6505   -2.0596   -0.8778 H   0  0  0  0  0  0  0  0  0  0  0  0
   -6.6008   -1.4813   -4.5334 H   0  0  0  0  0  0  0  0  0  0  0  0
   -6.6946   -5.4754   -3.8273 H   0  0  0  0  0  0  0  0  0  0  0  0
    4.5206   -0.1429    0.5488 H   0  0  0  0  0  0  0  0  0  0  0  0
    4.4975    1.3510   -0.3579 H   0  0  0  0  0  0  0  0  0  0  0  0
  1  2  1  0  0  0  0
  1 23  1  0  0  0  0
  1 24  1  0  0  0  0
  1 25  1  0  0  0  0
  2  3  1  0  0  0  0
  2  4  1  0  0  0  0
  2 26  1  0  0  0  0
  3 27  1  0  0  0  0
  3 28  1  0  0  0  0
  3 29  1  0  0  0  0
  4  5  1  0  0  0  0
  4 14  1  0  0  0  0
  4 30  1  0  0  0  0
  5 15  1  0  0  0  0
  5 31  1  0  0  0  0
  5 32  1  0  0  0  0
  6 15  1  0  0  0  0
  6  7  1  0  0  0  0
  6 33  1  0  0  0  0
  6 34  1  0  0  0  0
  7 20  1  0  0  0  0
  7 35  1  0  0  0  0
  7 36  1  0  0  0  0
  8 20  1  0  0  0  0
  8  9  1  0  0  0  0
  8 21  2  0  0  0  0
  9 16  1  0  0  0  0
  9 37  1  0  0  0  0
  9 38  1  0  0  0  0
 10 16  1  0  0  0  0
 10 11  1  0  0  0  0
 10 22  2  0  0  0  0
 11 17  1  0  0  0  0
 11 40  1  0  0  0  0
 11 41  1  0  0  0  0
 12 17  1  0  0  0  0
 12 42  1  0  0  0  0
 12 18  2  0  0  0  0
 13 18  1  0  0  0  0
 13 43  1  0  0  0  0
 13 19  2  0  0  0  0
 14 15  1  0  0  0  0
 14 44  1  0  0  0  0
 14 45  1  0  0  0  0
 16 39  1  0  0  0  0
 17 19  1  0  0  0  0
M  END
>  <score>
0.42284250259399414

$$$$
Z3515200831
 OpenBabel08202115463D

 51 53  0  0  0  0  0  0  0  0999 V2000
    0.5899   -0.6722   -0.2127 C   0  0  0  0  0  0  0  0  0  0  0  0
    0.5832    1.6470    0.6230 C   0  0  0  0  0  0  0  0  0  0  0  0
    1.9139    1.3785    1.2766 C   0  0  0  0  0  0  0  0  0  0  0  0
    3.9585    1.5937    2.0767 C   0  0  0  0  0  0  0  0  0  0  0  0
    5.3818    2.0195    2.4655 C   0  0  0  0  0  0  0  0  0  0  0  0
    5.9156    1.1121    3.5780 C   0  0  0  0  0  0  0  0  0  0  0  0
    5.3631    3.4507    3.0062 C   0  0  0  0  0  0  0  0  0  0  0  0
    6.3660    1.9040    1.3103 C   0  0  0  0  0  0  0  0  0  0  0  0
    3.0349    2.2196    1.2737 C   0  0  0  0  0  0  0  0  0  0  0  0
   -1.4937    0.6444   -0.2597 C   0  0  0  0  0  0  0  0  0  0  0  0
   -2.2458   -0.6360   -0.5141 C   0  0  0  0  0  0  0  0  0  0  0  0
   -3.6584   -2.0903   -1.3550 C   0  0  0  0  0  0  0  0  0  0  0  0
   -4.6822   -2.9673   -2.0262 C   0  0  0  0  0  0  0  0  0  0  0  0
   -4.5781   -2.8532   -3.5437 C   0  0  0  0  0  0  0  0  0  0  0  0
   -5.6882   -1.9036   -4.0103 C   0  0  0  0  0  0  0  0  0  0  0  0
   -6.8602   -2.2630   -3.0364 C   0  0  0  0  0  0  0  0  0  0  0  0
   -6.1347   -2.4769   -1.6950 C   0  0  0  0  0  0  0  0  0  0  0  0
   -3.2837   -0.8041   -1.4681 C   0  0  0  0  0  0  0  0  0  0  0  0
   -0.2020    0.4048    0.4265 N   0  0  0  0  0  0  0  0  0  0  0  0
    2.1221    0.3002    2.0379 N   0  0  0  0  0  0  0  0  0  0  0  0
    3.3846    0.4479    2.5147 N   0  0  0  0  0  0  0  0  0  0  0  0
   -2.0115   -1.7526    0.1368 N   0  0  0  0  0  0  0  0  0  0  0  0
   -2.9108   -2.6989   -0.4007 O   0  0  0  0  0  0  0  0  0  0  0  0
    1.5094   -0.6483    0.3340 H   0  0  0  0  0  0  0  0  0  0  0  0
    0.7532   -0.4662   -1.2499 H   0  0  0  0  0  0  0  0  0  0  0  0
    0.1048   -1.6202   -0.1088 H   0  0  0  0  0  0  0  0  0  0  0  0
    0.0228    2.3150    1.2431 H   0  0  0  0  0  0  0  0  0  0  0  0
    0.7528    2.1023   -0.3304 H   0  0  0  0  0  0  0  0  0  0  0  0
    3.8275   -0.1971    3.1048 H   0  0  0  0  0  0  0  0  0  0  0  0
    5.8180    0.0886    3.2817 H   0  0  0  0  0  0  0  0  0  0  0  0
    5.3548    1.2789    4.4738 H   0  0  0  0  0  0  0  0  0  0  0  0
    6.9470    1.3349    3.7555 H   0  0  0  0  0  0  0  0  0  0  0  0
    6.3596    3.7523    3.2530 H   0  0  0  0  0  0  0  0  0  0  0  0
    4.7506    3.4927    3.8826 H   0  0  0  0  0  0  0  0  0  0  0  0
    4.9660    4.1080    2.2611 H   0  0  0  0  0  0  0  0  0  0  0  0
    5.8943    1.4089    0.4873 H   0  0  0  0  0  0  0  0  0  0  0  0
    7.2193    1.3398    1.6241 H   0  0  0  0  0  0  0  0  0  0  0  0
    6.6763    2.8822    1.0073 H   0  0  0  0  0  0  0  0  0  0  0  0
    3.1446    3.1237    0.7714 H   0  0  0  0  0  0  0  0  0  0  0  0
   -1.3027    1.1243   -1.1968 H   0  0  0  0  0  0  0  0  0  0  0  0
   -2.0962    1.2827    0.3522 H   0  0  0  0  0  0  0  0  0  0  0  0
   -4.5446   -3.9811   -1.7128 H   0  0  0  0  0  0  0  0  0  0  0  0
   -4.7081   -3.8159   -3.9923 H   0  0  0  0  0  0  0  0  0  0  0  0
   -3.6214   -2.4587   -3.8157 H   0  0  0  0  0  0  0  0  0  0  0  0
   -5.9580   -2.0926   -5.0283 H   0  0  0  0  0  0  0  0  0  0  0  0
   -5.3943   -0.8805   -3.9027 H   0  0  0  0  0  0  0  0  0  0  0  0
   -7.3620   -3.1546   -3.3496 H   0  0  0  0  0  0  0  0  0  0  0  0
   -7.5654   -1.4610   -2.9695 H   0  0  0  0  0  0  0  0  0  0  0  0
   -6.0955   -1.5576   -1.1489 H   0  0  0  0  0  0  0  0  0  0  0  0
   -6.6474   -3.2154   -1.1148 H   0  0  0  0  0  0  0  0  0  0  0  0
   -3.6705   -0.0872   -2.1147 H   0  0  0  0  0  0  0  0  0  0  0  0
  1 19  1  0  0  0  0
  1 24  1  0  0  0  0
  1 25  1  0  0  0  0
  1 26  1  0  0  0  0
  2 19  1  0  0  0  0
  2  3  1  0  0  0  0
  2 27  1  0  0  0  0
  2 28  1  0  0  0  0
  3  9  1  0  0  0  0
  3 20  2  0  0  0  0
  4 21  1  0  0  0  0
  4  5  1  0  0  0  0
  4  9  2  0  0  0  0
  5  6  1  0  0  0  0
  5  7  1  0  0  0  0
  5  8  1  0  0  0  0
  6 30  1  0  0  0  0
  6 31  1  0  0  0  0
  6 32  1  0  0  0  0
  7 33  1  0  0  0  0
  7 34  1  0  0  0  0
  7 35  1  0  0  0  0
  8 36  1  0  0  0  0
  8 37  1  0  0  0  0
  8 38  1  0  0  0  0
  9 39  1  0  0  0  0
 10 19  1  0  0  0  0
 10 11  1  0  0  0  0
 10 40  1  0  0  0  0
 10 41  1  0  0  0  0
 11 18  1  0  0  0  0
 11 22  2  0  0  0  0
 12 23  1  0  0  0  0
 12 13  1  0  0  0  0
 12 18  2  0  0  0  0
 13 14  1  0  0  0  0
 13 17  1  0  0  0  0
 13 42  1  0  0  0  0
 14 15  1  0  0  0  0
 14 43  1  0  0  0  0
 14 44  1  0  0  0  0
 15 16  1  0  0  0  0
 15 45  1  0  0  0  0
 15 46  1  0  0  0  0
 16 17  1  0  0  0  0
 16 47  1  0  0  0  0
 16 48  1  0  0  0  0
 17 49  1  0  0  0  0
 17 50  1  0  0  0  0
 18 51  1  0  0  0  0
 20 21  1  0  0  0  0
 21 29  1  0  0  0  0
 22 23  1  0  0  0  0
M  END
>  <score>
0.42293691635131836

$$$$
PV-004030237817
 OpenBabel08202115463D

 54 57  0  0  0  0  0  0  0  0999 V2000
   -3.5622   -2.3542    0.0584 C   0  0  0  0  0  0  0  0  0  0  0  0
   -3.6244   -1.8084   -1.3588 C   0  0  1  0  0  0  0  0  0  0  0  0
   -2.2777   -1.3372   -1.8489 C   0  0  0  0  0  0  0  0  0  0  0  0
   -1.3933    0.9184   -1.0723 C   0  0  0  0  0  0  0  0  0  0  0  0
   -0.5929    1.2607   -0.0110 C   0  0  0  0  0  0  0  0  0  0  0  0
   -0.0484    2.6047    0.3763 C   0  0  0  0  0  0  0  0  0  0  0  0
    2.0860    2.2643    1.5547 C   0  0  0  0  0  0  0  0  0  0  0  0
    3.5864    2.1638    1.3601 C   0  0  1  0  0  0  0  0  0  0  0  0
    4.1597    3.4872    0.9142 C   0  0  0  0  0  0  0  0  0  0  0  0
    4.6957    4.1652    2.1709 C   0  0  0  0  0  0  0  0  0  0  0  0
    4.3387    3.2043    3.2891 C   0  0  0  0  0  0  0  0  0  0  0  0
    5.6145    1.3476    2.4014 C   0  0  0  0  0  0  0  0  0  0  0  0
    5.9585   -0.0568    2.0033 C   0  0  0  0  0  0  0  0  0  0  0  0
    6.3317    0.4508    3.3609 C   0  0  0  0  0  0  0  0  0  0  0  0
   -5.3851   -2.6906   -2.9360 C   0  0  0  0  0  0  0  0  0  0  0  0
   -5.8610   -3.8328   -3.7900 C   0  0  0  0  0  0  0  0  0  0  0  0
   -7.3028   -4.2338   -3.6927 C   0  0  0  0  0  0  0  0  0  0  0  0
   -6.2371   -5.1255   -3.1368 C   0  0  0  0  0  0  0  0  0  0  0  0
   -1.5906   -0.4082   -0.9498 N   0  0  0  0  0  0  0  0  0  0  0  0
    1.4129    2.5679    0.4278 N   0  0  0  0  0  0  0  0  0  0  0  0
    4.2597    1.8988    2.6324 N   0  0  2  0  0  0  0  0  0  0  0  0
   -0.3385    0.1236    0.7014 N   0  0  0  0  0  0  0  0  0  0  0  0
   -0.9423   -0.8880    0.1315 N   0  0  0  0  0  0  0  0  0  0  0  0
   -4.1768   -2.8080   -2.2661 N   0  0  0  0  0  0  0  0  0  0  0  0
    1.5688    2.0812    2.6444 O   0  0  0  0  0  0  0  0  0  0  0  0
   -6.0245   -1.6594   -2.8094 O   0  0  0  0  0  0  0  0  0  0  0  0
   -3.3496   -1.5567    0.7393 H   0  0  0  0  0  0  0  0  0  0  0  0
   -2.7906   -3.0927    0.1224 H   0  0  0  0  0  0  0  0  0  0  0  0
   -4.5027   -2.7975    0.3112 H   0  0  0  0  0  0  0  0  0  0  0  0
   -4.2811   -0.9636   -1.3526 H   0  0  0  0  0  0  0  0  0  0  0  0
   -2.4181   -0.8477   -2.7899 H   0  0  0  0  0  0  0  0  0  0  0  0
   -1.6527   -2.1954   -1.9823 H   0  0  0  0  0  0  0  0  0  0  0  0
   -1.7668    1.5476   -1.8113 H   0  0  0  0  0  0  0  0  0  0  0  0
   -0.4282    2.8744    1.3396 H   0  0  0  0  0  0  0  0  0  0  0  0
   -0.3573    3.3314   -0.3457 H   0  0  0  0  0  0  0  0  0  0  0  0
    1.9201    2.7712   -0.3858 H   0  0  0  0  0  0  0  0  0  0  0  0
    3.8035    1.3956    0.6475 H   0  0  0  0  0  0  0  0  0  0  0  0
    3.3973    4.0888    0.4649 H   0  0  0  0  0  0  0  0  0  0  0  0
    4.9512    3.3302    0.2115 H   0  0  0  0  0  0  0  0  0  0  0  0
    4.2248    5.1143    2.3207 H   0  0  0  0  0  0  0  0  0  0  0  0
    5.7555    4.2983    2.1081 H   0  0  0  0  0  0  0  0  0  0  0  0
    5.0968    3.2033    4.0443 H   0  0  0  0  0  0  0  0  0  0  0  0
    3.3983    3.4656    3.7274 H   0  0  0  0  0  0  0  0  0  0  0  0
    6.2720    2.0629    1.9532 H   0  0  0  0  0  0  0  0  0  0  0  0
    6.7182   -0.2344    1.2710 H   0  0  0  0  0  0  0  0  0  0  0  0
    5.1845   -0.7883    1.8997 H   0  0  0  0  0  0  0  0  0  0  0  0
    5.8249    0.0810    4.2276 H   0  0  0  0  0  0  0  0  0  0  0  0
    7.3585    0.6349    3.5989 H   0  0  0  0  0  0  0  0  0  0  0  0
   -3.6545   -3.6241   -2.4132 H   0  0  0  0  0  0  0  0  0  0  0  0
   -5.4175   -3.9080   -4.7609 H   0  0  0  0  0  0  0  0  0  0  0  0
   -7.8380   -4.5239   -4.5726 H   0  0  0  0  0  0  0  0  0  0  0  0
   -7.9604   -3.7094   -3.0312 H   0  0  0  0  0  0  0  0  0  0  0  0
   -6.1339   -5.2391   -2.0779 H   0  0  0  0  0  0  0  0  0  0  0  0
   -6.0115   -6.0536   -3.6192 H   0  0  0  0  0  0  0  0  0  0  0  0
  1  2  1  0  0  0  0
  1 27  1  0  0  0  0
  1 28  1  0  0  0  0
  1 29  1  0  0  0  0
  2  3  1  0  0  0  0
  2 24  1  0  0  0  0
  2 30  1  1  0  0  0
  3 19  1  0  0  0  0
  3 31  1  0  0  0  0
  3 32  1  0  0  0  0
  4 19  1  0  0  0  0
  4 33  1  0  0  0  0
  4  5  2  0  0  0  0
  5  6  1  0  0  0  0
  5 22  1  0  0  0  0
  6 20  1  0  0  0  0
  6 34  1  0  0  0  0
  6 35  1  0  0  0  0
  7 20  1  0  0  0  0
  7  8  1  0  0  0  0
  7 25  2  0  0  0  0
  8  9  1  0  0  0  0
  8 21  1  0  0  0  0
  8 37  1  6  0  0  0
  9 10  1  0  0  0  0
  9 38  1  0  0  0  0
  9 39  1  0  0  0  0
 10 11  1  0  0  0  0
 10 40  1  0  0  0  0
 10 41  1  0  0  0  0
 11 21  1  0  0  0  0
 11 42  1  0  0  0  0
 11 43  1  0  0  0  0
 12 13  1  0  0  0  0
 12 14  1  0  0  0  0
 12 44  1  0  0  0  0
 13 14  1  0  0  0  0
 13 45  1  0  0  0  0
 13 46  1  0  0  0  0
 14 47  1  0  0  0  0
 14 48  1  0  0  0  0
 15 24  1  0  0  0  0
 15 16  1  0  0  0  0
 15 26  2  0  0  0  0
 16 17  1  0  0  0  0
 16 18  1  0  0  0  0
 16 50  1  0  0  0  0
 17 18  1  0  0  0  0
 17 51  1  0  0  0  0
 17 52  1  0  0  0  0
 18 53  1  0  0  0  0
 18 54  1  0  0  0  0
 19 23  1  0  0  0  0
 20 36  1  0  0  0  0
 21 12  1  6  0  0  0
 22 23  2  0  0  0  0
 24 49  1  0  0  0  0
M  END
>  <score>
0.42314285039901733

$$$$
Z4256328830
 OpenBabel08202115463D

 54 56  0  0  0  0  0  0  0  0999 V2000
   -5.6627   -2.8972   -1.3343 C   0  0  0  0  0  0  0  0  0  0  0  0
   -5.2737   -2.2883   -2.6550 C   0  0  0  0  0  0  0  0  0  0  0  0
   -5.9920   -0.9841   -2.9335 C   0  0  0  0  0  0  0  0  0  0  0  0
   -5.4827   -3.2734   -3.7874 C   0  0  0  0  0  0  0  0  0  0  0  0
   -3.3288   -1.2328   -1.7977 C   0  0  0  0  0  0  0  0  0  0  0  0
   -1.1600   -0.5426   -0.9033 C   0  0  0  0  0  0  0  0  0  0  0  0
   -0.8499    0.8327   -1.4918 C   0  0  1  0  0  0  0  0  0  0  0  0
   -2.1360    1.6405   -1.7188 C   0  0  0  0  0  0  0  0  0  0  0  0
   -1.2040    2.3031    0.3459 C   0  0  0  0  0  0  0  0  0  0  0  0
   -0.0926    1.6860   -0.5084 C   0  0  1  0  0  0  0  0  0  0  0  0
    1.9980    1.3656    0.7017 C   0  0  0  0  0  0  0  0  0  0  0  0
    4.1562    0.8654    1.8026 C   0  0  1  0  0  0  0  0  0  0  0  0
    4.5278    0.8469    3.2597 C   0  0  2  0  0  0  0  0  0  0  0  0
    5.6262    1.7417    3.8129 C   0  0  0  0  0  0  0  0  0  0  0  0
    6.7340    0.8185    4.3142 C   0  0  0  0  0  0  0  0  0  0  0  0
    7.2970   -0.0184    3.1464 C   0  0  0  0  0  0  0  0  0  0  0  0
    5.5989    1.0228    2.1972 C   0  0  1  0  0  0  0  0  0  0  0  0
   -3.8531   -2.0819   -2.6976 O   0  0  0  0  0  0  0  0  0  0  0  0
   -3.9613   -0.4754   -1.1058 O   0  0  0  0  0  0  0  0  0  0  0  0
   -2.3897    2.2421   -0.4784 O   0  0  0  0  0  0  0  0  0  0  0  0
    2.3383    2.5307    0.4253 O   0  0  0  0  0  0  0  0  0  0  0  0
    6.4083   -0.0992    2.0074 O   0  0  0  0  0  0  0  0  0  0  0  0
   -1.9979   -1.3484   -1.7788 N   0  0  0  0  0  0  0  0  0  0  0  0
    0.8070    0.8717    0.3092 N   0  0  0  0  0  0  0  0  0  0  0  0
    2.7938    0.5524    1.3979 N   0  0  0  0  0  0  0  0  0  0  0  0
   -5.6563   -2.1414   -0.5769 H   0  0  0  0  0  0  0  0  0  0  0  0
   -4.9644   -3.6658   -1.0767 H   0  0  0  0  0  0  0  0  0  0  0  0
   -6.6439   -3.3170   -1.4106 H   0  0  0  0  0  0  0  0  0  0  0  0
   -5.2734   -0.2062   -3.0867 H   0  0  0  0  0  0  0  0  0  0  0  0
   -6.6146   -0.7350   -2.0998 H   0  0  0  0  0  0  0  0  0  0  0  0
   -6.5953   -1.0897   -3.8109 H   0  0  0  0  0  0  0  0  0  0  0  0
   -5.0804   -4.2257   -3.5112 H   0  0  0  0  0  0  0  0  0  0  0  0
   -4.9857   -2.9177   -4.6656 H   0  0  0  0  0  0  0  0  0  0  0  0
   -6.5296   -3.3726   -3.9849 H   0  0  0  0  0  0  0  0  0  0  0  0
   -1.5711   -1.9984   -2.3752 H   0  0  0  0  0  0  0  0  0  0  0  0
   -0.2384   -1.0607   -0.7386 H   0  0  0  0  0  0  0  0  0  0  0  0
   -1.6668   -0.4100    0.0297 H   0  0  0  0  0  0  0  0  0  0  0  0
   -0.3018    0.7159   -2.4033 H   0  0  0  0  0  0  0  0  0  0  0  0
   -2.9431    0.9968   -2.0001 H   0  0  0  0  0  0  0  0  0  0  0  0
   -1.9893    2.3815   -2.4766 H   0  0  0  0  0  0  0  0  0  0  0  0
   -0.9692    3.3176    0.5917 H   0  0  0  0  0  0  0  0  0  0  0  0
   -1.3425    1.7404    1.2454 H   0  0  0  0  0  0  0  0  0  0  0  0
    0.4702    2.4441   -1.0119 H   0  0  0  0  0  0  0  0  0  0  0  0
    0.5430   -0.0348    0.5719 H   0  0  0  0  0  0  0  0  0  0  0  0
    2.4339   -0.3218    1.6563 H   0  0  0  0  0  0  0  0  0  0  0  0
    4.5543    1.6232    1.1606 H   0  0  0  0  0  0  0  0  0  0  0  0
    3.7655    0.5467    3.9479 H   0  0  0  0  0  0  0  0  0  0  0  0
    5.2475    2.3346    4.6191 H   0  0  0  0  0  0  0  0  0  0  0  0
    6.0014    2.3835    3.0432 H   0  0  0  0  0  0  0  0  0  0  0  0
    6.3369    0.1622    5.0602 H   0  0  0  0  0  0  0  0  0  0  0  0
    7.5202    1.4074    4.7384 H   0  0  0  0  0  0  0  0  0  0  0  0
    7.4828   -1.0108    3.5008 H   0  0  0  0  0  0  0  0  0  0  0  0
    8.2169    0.4245    2.8262 H   0  0  0  0  0  0  0  0  0  0  0  0
    5.8930    1.9515    1.7086 H   0  0  0  0  0  0  0  0  0  0  0  0
  1  2  1  0  0  0  0
  1 26  1  0  0  0  0
  1 27  1  0  0  0  0
  1 28  1  0  0  0  0
  2  3  1  0  0  0  0
  2  4  1  0  0  0  0
  2 18  1  0  0  0  0
  3 29  1  0  0  0  0
  3 30  1  0  0  0  0
  3 31  1  0  0  0  0
  4 32  1  0  0  0  0
  4 33  1  0  0  0  0
  4 34  1  0  0  0  0
  5 18  1  0  0  0  0
  5 23  1  0  0  0  0
  5 19  2  0  0  0  0
  6 23  1  0  0  0  0
  6  7  1  0  0  0  0
  6 36  1  0  0  0  0
  6 37  1  0  0  0  0
  7  8  1  0  0  0  0
  7 10  1  0  0  0  0
  7 38  1  6  0  0  0
  8 20  1  0  0  0  0
  8 39  1  0  0  0  0
  8 40  1  0  0  0  0
  9 20  1  0  0  0  0
  9 10  1  0  0  0  0
  9 41  1  0  0  0  0
  9 42  1  0  0  0  0
 10 24  1  0  0  0  0
 10 43  1  6  0  0  0
 11 24  1  0  0  0  0
 11 25  1  0  0  0  0
 11 21  2  0  0  0  0
 12 25  1  0  0  0  0
 12 13  1  0  0  0  0
 12 17  1  0  0  0  0
 12 46  1  6  0  0  0
 13 14  1  0  0  0  0
 13 17  1  0  0  0  0
 13 47  1  1  0  0  0
 14 15  1  0  0  0  0
 14 48  1  0  0  0  0
 14 49  1  0  0  0  0
 15 16  1  0  0  0  0
 15 50  1  0  0  0  0
 15 51  1  0  0  0  0
 16 22  1  0  0  0  0
 16 52  1  0  0  0  0
 16 53  1  0  0  0  0
 17 22  1  0  0  0  0
 17 54  1  6  0  0  0
 23 35  1  0  0  0  0
 24 44  1  0  0  0  0
 25 45  1  0  0  0  0
M  END
>  <score>
0.42321425676345825

$$$$
Z3782841007
 OpenBabel08202115463D

 53 56  0  0  0  0  0  0  0  0999 V2000
   -6.9416   -4.0937   -3.8209 C   0  0  0  0  0  0  0  0  0  0  0  0
   -5.9634   -2.9808   -4.1602 C   0  0  0  0  0  0  0  0  0  0  0  0
   -5.4867   -2.2432   -2.9668 C   0  0  0  0  0  0  0  0  0  0  0  0
   -4.3521   -0.8003   -1.8913 C   0  0  0  0  0  0  0  0  0  0  0  0
   -3.3714    0.3255   -1.7101 C   0  0  0  0  0  0  0  0  0  0  0  0
   -2.5381    0.2708   -0.4237 C   0  0  1  0  0  0  0  0  0  0  0  0
   -1.7887   -1.0620   -0.3204 C   0  0  0  0  0  0  0  0  0  0  0  0
   -0.6115   -0.8349   -1.2544 C   0  0  0  0  0  0  0  0  0  0  0  0
   -0.1924    0.6166   -0.9980 C   0  0  1  0  0  0  0  0  0  0  0  0
    1.8860    1.5740   -0.0431 C   0  0  0  0  0  0  0  0  0  0  0  0
    2.6530    0.5657    2.1045 C   0  0  0  0  0  0  0  0  0  0  0  0
    4.0580    0.5174    2.6388 C   0  0  1  0  0  0  0  0  0  0  0  0
    4.2945    0.1192    4.0865 C   0  0  0  0  0  0  0  0  0  0  0  0
    5.1483    0.3124    1.6272 C   0  0  0  0  0  0  0  0  0  0  0  0
    4.7980    1.7014    2.0665 C   0  0  2  0  0  0  0  0  0  0  0  0
    5.7534    2.4594    2.9426 C   0  0  0  0  0  0  0  0  0  0  0  0
    3.8406    2.4763    1.1809 C   0  0  0  0  0  0  0  0  0  0  0  0
   -1.4342    1.3317   -0.4489 C   0  0  0  0  0  0  0  0  0  0  0  0
   -5.8088   -2.3828   -1.7274 N   0  0  0  0  0  0  0  0  0  0  0  0
   -5.0542   -1.4339   -1.0169 N   0  0  0  0  0  0  0  0  0  0  0  0
    0.8890    0.6647   -0.0243 N   0  0  0  0  0  0  0  0  0  0  0  0
    2.7334    1.5449    1.0019 N   0  0  0  0  0  0  0  0  0  0  0  0
    2.0269    2.3936   -0.9603 O   0  0  0  0  0  0  0  0  0  0  0  0
    5.0309    3.1504    3.9531 O   0  0  0  0  0  0  0  0  0  0  0  0
   -4.5660   -1.2568   -3.1613 O   0  0  0  0  0  0  0  0  0  0  0  0
   -6.5694   -4.6552   -2.9895 H   0  0  0  0  0  0  0  0  0  0  0  0
   -7.0532   -4.7401   -4.6662 H   0  0  0  0  0  0  0  0  0  0  0  0
   -7.8907   -3.6692   -3.5680 H   0  0  0  0  0  0  0  0  0  0  0  0
   -6.4487   -2.2892   -4.8166 H   0  0  0  0  0  0  0  0  0  0  0  0
   -5.1177   -3.4101   -4.6555 H   0  0  0  0  0  0  0  0  0  0  0  0
   -3.9199    1.2442   -1.7094 H   0  0  0  0  0  0  0  0  0  0  0  0
   -2.6971    0.3127   -2.5409 H   0  0  0  0  0  0  0  0  0  0  0  0
   -3.1779    0.4112    0.4225 H   0  0  0  0  0  0  0  0  0  0  0  0
   -1.4604   -1.2468    0.6811 H   0  0  0  0  0  0  0  0  0  0  0  0
   -2.3972   -1.8769   -0.6529 H   0  0  0  0  0  0  0  0  0  0  0  0
    0.1893   -1.5060   -1.0234 H   0  0  0  0  0  0  0  0  0  0  0  0
   -0.9067   -0.9686   -2.2741 H   0  0  0  0  0  0  0  0  0  0  0  0
    0.1271    1.0766   -1.9097 H   0  0  0  0  0  0  0  0  0  0  0  0
    0.8931   -0.0059    0.6903 H   0  0  0  0  0  0  0  0  0  0  0  0
    2.3495   -0.3939    1.7415 H   0  0  0  0  0  0  0  0  0  0  0  0
    1.9690    0.8952    2.8585 H   0  0  0  0  0  0  0  0  0  0  0  0
    3.7320    0.7626    4.7304 H   0  0  0  0  0  0  0  0  0  0  0  0
    5.3360    0.2082    4.3150 H   0  0  0  0  0  0  0  0  0  0  0  0
    3.9819   -0.8935    4.2332 H   0  0  0  0  0  0  0  0  0  0  0  0
    4.9038   -0.0119    0.6373 H   0  0  0  0  0  0  0  0  0  0  0  0
    6.0787   -0.1233    1.9262 H   0  0  0  0  0  0  0  0  0  0  0  0
    6.2972    3.1643    2.3491 H   0  0  0  0  0  0  0  0  0  0  0  0
    6.4369    1.7745    3.3993 H   0  0  0  0  0  0  0  0  0  0  0  0
    5.4917    3.0661    4.7910 H   0  0  0  0  0  0  0  0  0  0  0  0
    3.5136    3.3745    1.6618 H   0  0  0  0  0  0  0  0  0  0  0  0
    4.2950    2.7184    0.2429 H   0  0  0  0  0  0  0  0  0  0  0  0
   -1.2475    1.7006    0.5380 H   0  0  0  0  0  0  0  0  0  0  0  0
   -1.7109    2.1443   -1.0876 H   0  0  0  0  0  0  0  0  0  0  0  0
  1  2  1  0  0  0  0
  1 26  1  0  0  0  0
  1 27  1  0  0  0  0
  1 28  1  0  0  0  0
  2  3  1  0  0  0  0
  2 29  1  0  0  0  0
  2 30  1  0  0  0  0
  3 25  1  0  0  0  0
  3 19  2  0  0  0  0
  4  5  1  0  0  0  0
  4 25  1  0  0  0  0
  4 20  2  0  0  0  0
  5  6  1  0  0  0  0
  5 31  1  0  0  0  0
  5 32  1  0  0  0  0
  6  7  1  0  0  0  0
  6 18  1  0  0  0  0
  6 33  1  1  0  0  0
  7  8  1  0  0  0  0
  7 34  1  0  0  0  0
  7 35  1  0  0  0  0
  8  9  1  0  0  0  0
  8 36  1  0  0  0  0
  8 37  1  0  0  0  0
  9 21  1  0  0  0  0
  9 18  1  0  0  0  0
  9 38  1  6  0  0  0
 10 21  1  0  0  0  0
 10 22  1  0  0  0  0
 10 23  2  0  0  0  0
 11 22  1  0  0  0  0
 11 12  1  0  0  0  0
 11 40  1  0  0  0  0
 11 41  1  0  0  0  0
 12 13  1  1  0  0  0
 12 14  1  0  0  0  0
 12 15  1  0  0  0  0
 13 42  1  0  0  0  0
 13 43  1  0  0  0  0
 13 44  1  0  0  0  0
 14 15  1  0  0  0  0
 14 45  1  0  0  0  0
 14 46  1  0  0  0  0
 15 16  1  1  0  0  0
 15 17  1  0  0  0  0
 16 24  1  0  0  0  0
 16 47  1  0  0  0  0
 16 48  1  0  0  0  0
 17 22  1  0  0  0  0
 17 50  1  0  0  0  0
 17 51  1  0  0  0  0
 18 52  1  0  0  0  0
 18 53  1  0  0  0  0
 19 20  1  0  0  0  0
 21 39  1  0  0  0  0
 24 49  1  0  0  0  0
M  END
>  <score>
0.42391306161880493

$$$$
Z3553833016
 OpenBabel08202115463D

 43 44  0  0  0  0  0  0  0  0999 V2000
   -5.9087   -2.8344   -4.5898 C   0  0  0  0  0  0  0  0  0  0  0  0
   -5.6790   -3.0141   -3.0943 C   0  0  1  0  0  0  0  0  0  0  0  0
   -4.4261   -3.8382   -2.8552 C   0  0  0  0  0  0  0  0  0  0  0  0
   -3.8147   -1.9397   -1.7628 C   0  0  0  0  0  0  0  0  0  0  0  0
   -1.7633   -1.3292   -0.5257 C   0  0  0  0  0  0  0  0  0  0  0  0
   -0.8741   -0.1683   -0.2747 C   0  0  0  0  0  0  0  0  0  0  0  0
    0.8435    0.6878    0.9671 C   0  0  0  0  0  0  0  0  0  0  0  0
    0.8129    1.8818    0.2720 C   0  0  0  0  0  0  0  0  0  0  0  0
    2.8645    2.8429    1.3503 C   0  0  0  0  0  0  0  0  0  0  0  0
    4.2290    1.3633    2.6944 C   0  0  0  0  0  0  0  0  0  0  0  0
    5.4553    2.0552    2.1344 C   0  0  0  0  0  0  0  0  0  0  0  0
    4.4416   -0.1261    2.9108 C   0  0  0  0  0  0  0  0  0  0  0  0
    3.7630    2.0368    3.9748 C   0  0  0  0  0  0  0  0  0  0  0  0
   -0.1167    2.0389   -0.7393 C   0  0  0  0  0  0  0  0  0  0  0  0
   -0.9763    0.9944   -1.0183 C   0  0  0  0  0  0  0  0  0  0  0  0
   -3.4364   -3.1107   -2.0502 N   0  0  0  0  0  0  0  0  0  0  0  0
   -2.9903   -1.0711   -1.0251 N   0  0  0  0  0  0  0  0  0  0  0  0
    0.0192   -0.3327    0.7113 N   0  0  0  0  0  0  0  0  0  0  0  0
    1.7197    2.9282    0.5907 N   0  0  0  0  0  0  0  0  0  0  0  0
   -1.3533   -2.4752   -0.3511 O   0  0  0  0  0  0  0  0  0  0  0  0
    3.5700    3.8032    1.5703 O   0  0  0  0  0  0  0  0  0  0  0  0
    3.0737    1.5808    1.7945 O   0  0  0  0  0  0  0  0  0  0  0  0
   -2.1366    1.1977   -2.2854 Cl  0  0  0  0  0  0  0  0  0  0  0  0
   -5.4189   -1.4265   -2.3197 S   0  0  0  0  0  0  0  0  0  0  0  0
   -6.4192   -1.9104   -4.7643 H   0  0  0  0  0  0  0  0  0  0  0  0
   -6.5020   -3.6446   -4.9591 H   0  0  0  0  0  0  0  0  0  0  0  0
   -4.9662   -2.8221   -5.0962 H   0  0  0  0  0  0  0  0  0  0  0  0
   -6.5267   -3.5005   -2.6587 H   0  0  0  0  0  0  0  0  0  0  0  0
   -4.6964   -4.7369   -2.3412 H   0  0  0  0  0  0  0  0  0  0  0  0
   -3.9890   -4.0849   -3.8002 H   0  0  0  0  0  0  0  0  0  0  0  0
   -3.3482   -0.1750   -0.8539 H   0  0  0  0  0  0  0  0  0  0  0  0
    1.5437    0.5777    1.7281 H   0  0  0  0  0  0  0  0  0  0  0  0
    1.5054    3.8130    0.2277 H   0  0  0  0  0  0  0  0  0  0  0  0
    5.6894    1.6454    1.1741 H   0  0  0  0  0  0  0  0  0  0  0  0
    6.2823    1.9060    2.7968 H   0  0  0  0  0  0  0  0  0  0  0  0
    5.2602    3.1027    2.0370 H   0  0  0  0  0  0  0  0  0  0  0  0
    4.4977   -0.6203    1.9635 H   0  0  0  0  0  0  0  0  0  0  0  0
    3.6233   -0.5250    3.4730 H   0  0  0  0  0  0  0  0  0  0  0  0
    5.3537   -0.2815    3.4484 H   0  0  0  0  0  0  0  0  0  0  0  0
    4.2758    1.6087    4.8107 H   0  0  0  0  0  0  0  0  0  0  0  0
    2.7092    1.8918    4.0907 H   0  0  0  0  0  0  0  0  0  0  0  0
    3.9759    3.0842    3.9244 H   0  0  0  0  0  0  0  0  0  0  0  0
   -0.1676    2.9262   -1.2795 H   0  0  0  0  0  0  0  0  0  0  0  0
  1  2  1  0  0  0  0
  1 25  1  0  0  0  0
  1 26  1  0  0  0  0
  1 27  1  0  0  0  0
  2  3  1  0  0  0  0
  2 24  1  0  0  0  0
  2 28  1  1  0  0  0
  3 16  1  0  0  0  0
  3 29  1  0  0  0  0
  3 30  1  0  0  0  0
  4 17  1  0  0  0  0
  4 24  1  0  0  0  0
  4 16  2  0  0  0  0
  5 17  1  0  0  0  0
  5  6  1  0  0  0  0
  5 20  2  0  0  0  0
  6 15  1  0  0  0  0
  6 18  2  0  0  0  0
  7 18  1  0  0  0  0
  7 32  1  0  0  0  0
  7  8  2  0  0  0  0
  8 19  1  0  0  0  0
  8 14  1  0  0  0  0
  9 19  1  0  0  0  0
  9 22  1  0  0  0  0
  9 21  2  0  0  0  0
 10 22  1  0  0  0  0
 10 11  1  0  0  0  0
 10 12  1  0  0  0  0
 10 13  1  0  0  0  0
 11 34  1  0  0  0  0
 11 35  1  0  0  0  0
 11 36  1  0  0  0  0
 12 37  1  0  0  0  0
 12 38  1  0  0  0  0
 12 39  1  0  0  0  0
 13 40  1  0  0  0  0
 13 41  1  0  0  0  0
 13 42  1  0  0  0  0
 14 43  1  0  0  0  0
 14 15  2  0  0  0  0
 15 23  1  0  0  0  0
 17 31  1  0  0  0  0
 19 33  1  0  0  0  0
M  END
>  <score>
0.42395317554473877

$$$$
PV-003420340541
 OpenBabel08202115463D

 52 55  0  0  0  0  0  0  0  0999 V2000
   -1.7337   -0.0134    0.4784 C   0  0  0  0  0  0  0  0  0  0  0  0
    0.6267    0.3383   -0.2453 C   0  0  0  0  0  0  0  0  0  0  0  0
    0.9335    1.5947    0.5301 C   0  0  0  0  0  0  0  0  0  0  0  0
    2.6375    1.3917    2.2831 C   0  0  0  0  0  0  0  0  0  0  0  0
    4.1209    1.3124    2.5660 C   0  0  2  0  0  0  0  0  0  0  0  0
    4.7682   -0.0885    2.3435 C   0  0  0  0  0  0  0  0  0  0  0  0
    6.0657   -0.0518    3.1930 C   0  0  0  0  0  0  0  0  0  0  0  0
    5.2025    1.1531    2.7014 C   0  0  2  0  0  0  0  0  0  0  0  0
    6.2375    2.3135    2.5594 C   0  0  0  0  0  0  0  0  0  0  0  0
    4.5319    1.5936    4.0538 C   0  0  0  0  0  0  0  0  0  0  0  0
   -1.2726    0.5013   -1.8397 C   0  0  0  0  0  0  0  0  0  0  0  0
   -2.7006    0.2204   -2.1089 C   0  0  0  0  0  0  0  0  0  0  0  0
   -3.5929    1.2275   -2.4249 C   0  0  0  0  0  0  0  0  0  0  0  0
   -4.9217    0.9229   -2.6756 C   0  0  0  0  0  0  0  0  0  0  0  0
   -5.3555   -0.3874   -2.6043 C   0  0  0  0  0  0  0  0  0  0  0  0
   -4.4607   -1.3977   -2.2874 C   0  0  0  0  0  0  0  0  0  0  0  0
   -4.9330   -2.8306   -2.2150 C   0  0  0  0  0  0  0  0  0  0  0  0
   -4.3056   -3.7789   -3.2506 C   0  0  0  0  0  0  0  0  0  0  0  0
   -6.2547   -3.1208   -2.9448 C   0  0  0  0  0  0  0  0  0  0  0  0
   -3.1358   -1.0938   -2.0374 C   0  0  0  0  0  0  0  0  0  0  0  0
   -0.7812    0.2371   -0.6121 N   0  0  0  0  0  0  0  0  0  0  0  0
    2.3162    1.6352    1.0093 N   0  0  0  0  0  0  0  0  0  0  0  0
    1.8110    1.1692    3.1668 O   0  0  0  0  0  0  0  0  0  0  0  0
    4.9866    2.2358    1.8496 O   0  0  0  0  0  0  0  0  0  0  0  0
   -0.5511    0.9663   -2.7200 O   0  0  0  0  0  0  0  0  0  0  0  0
   -5.5951   -4.0446   -3.8522 O   0  0  0  0  0  0  0  0  0  0  0  0
   -2.0217    0.9168    0.9219 H   0  0  0  0  0  0  0  0  0  0  0  0
   -1.2730   -0.6336    1.2187 H   0  0  0  0  0  0  0  0  0  0  0  0
   -2.6001   -0.5059    0.0888 H   0  0  0  0  0  0  0  0  0  0  0  0
    1.2149    0.3348   -1.1391 H   0  0  0  0  0  0  0  0  0  0  0  0
    0.8859   -0.5078    0.3562 H   0  0  0  0  0  0  0  0  0  0  0  0
    0.2767    1.6461    1.3733 H   0  0  0  0  0  0  0  0  0  0  0  0
    0.7659    2.4392   -0.1052 H   0  0  0  0  0  0  0  0  0  0  0  0
    3.0310    1.8483    0.3736 H   0  0  0  0  0  0  0  0  0  0  0  0
    4.1154   -0.8655    2.6826 H   0  0  0  0  0  0  0  0  0  0  0  0
    4.9969   -0.2401    1.3093 H   0  0  0  0  0  0  0  0  0  0  0  0
    6.0375   -0.7933    3.9639 H   0  0  0  0  0  0  0  0  0  0  0  0
    6.9279   -0.2076    2.5788 H   0  0  0  0  0  0  0  0  0  0  0  0
    4.8175    1.3320    1.2004 H   0  0  0  0  0  0  0  0  0  0  0  0
    6.4307    3.3199    2.8670 H   0  0  0  0  0  0  0  0  0  0  0  0
    7.0400    1.9687    1.9412 H   0  0  0  0  0  0  0  0  0  0  0  0
    4.2905    2.5855    4.3743 H   0  0  0  0  0  0  0  0  0  0  0  0
    4.1204    0.8856    4.7425 H   0  0  0  0  0  0  0  0  0  0  0  0
   -3.2673    2.2139   -2.4746 H   0  0  0  0  0  0  0  0  0  0  0  0
   -5.5922    1.6802   -2.9173 H   0  0  0  0  0  0  0  0  0  0  0  0
   -6.3533   -0.6155   -2.7884 H   0  0  0  0  0  0  0  0  0  0  0  0
   -4.8889   -3.1704   -1.2014 H   0  0  0  0  0  0  0  0  0  0  0  0
   -3.8459   -4.6434   -2.8192 H   0  0  0  0  0  0  0  0  0  0  0  0
   -3.6139   -3.2983   -3.9105 H   0  0  0  0  0  0  0  0  0  0  0  0
   -6.9967   -3.5805   -2.3260 H   0  0  0  0  0  0  0  0  0  0  0  0
   -6.6752   -2.2655   -3.4311 H   0  0  0  0  0  0  0  0  0  0  0  0
   -2.4653   -1.8512   -1.7957 H   0  0  0  0  0  0  0  0  0  0  0  0
  1 21  1  0  0  0  0
  1 27  1  0  0  0  0
  1 28  1  0  0  0  0
  1 29  1  0  0  0  0
  2 21  1  0  0  0  0
  2  3  1  0  0  0  0
  2 30  1  0  0  0  0
  2 31  1  0  0  0  0
  3 22  1  0  0  0  0
  3 32  1  0  0  0  0
  3 33  1  0  0  0  0
  4 22  1  0  0  0  0
  4 23  2  0  0  0  0
  5  4  1  6  0  0  0
  5  6  1  0  0  0  0
  5 24  1  0  0  0  0
  5 10  1  0  0  0  0
  6  7  1  0  0  0  0
  6 35  1  0  0  0  0
  6 36  1  0  0  0  0
  7  8  1  0  0  0  0
  7 37  1  0  0  0  0
  7 38  1  0  0  0  0
  8  9  1  0  0  0  0
  8 10  1  0  0  0  0
  8 39  1  6  0  0  0
  9 24  1  0  0  0  0
  9 40  1  0  0  0  0
  9 41  1  0  0  0  0
 10 42  1  0  0  0  0
 10 43  1  0  0  0  0
 11 21  1  0  0  0  0
 11 12  1  0  0  0  0
 11 25  2  0  0  0  0
 12 20  1  0  0  0  0
 12 13  2  0  0  0  0
 13 14  1  0  0  0  0
 13 44  1  0  0  0  0
 14 45  1  0  0  0  0
 14 15  2  0  0  0  0
 15 16  1  0  0  0  0
 15 46  1  0  0  0  0
 16 17  1  0  0  0  0
 16 20  2  0  0  0  0
 17 18  1  0  0  0  0
 17 19  1  0  0  0  0
 17 47  1  0  0  0  0
 18 26  1  0  0  0  0
 18 48  1  0  0  0  0
 18 49  1  0  0  0  0
 19 26  1  0  0  0  0
 19 50  1  0  0  0  0
 19 51  1  0  0  0  0
 20 52  1  0  0  0  0
 22 34  1  0  0  0  0
M  END
>  <score>
0.4240117073059082

$$$$
PV-003244098624
 OpenBabel08202115463D

 56 58  0  0  0  0  0  0  0  0999 V2000
   -7.2860   -4.0453   -4.7801 C   0  0  0  0  0  0  0  0  0  0  0  0
   -7.5772   -3.3663   -3.4517 C   0  0  0  0  0  0  0  0  0  0  0  0
   -6.3655   -2.6241   -2.9548 C   0  0  0  0  0  0  0  0  0  0  0  0
   -6.2127   -1.2761   -3.2396 C   0  0  0  0  0  0  0  0  0  0  0  0
   -5.0973   -0.5965   -2.7876 C   0  0  0  0  0  0  0  0  0  0  0  0
   -4.1341   -1.2615   -2.0449 C   0  0  0  0  0  0  0  0  0  0  0  0
   -2.6614   -0.1974   -0.3258 C   0  0  0  0  0  0  0  0  0  0  0  0
   -1.4536    0.4427   -0.4506 C   0  0  0  0  0  0  0  0  0  0  0  0
   -0.5574    1.0761    0.5649 C   0  0  0  0  0  0  0  0  0  0  0  0
    1.4658    0.6489   -0.8961 C   0  0  0  0  0  0  0  0  0  0  0  0
    2.9078    0.7900   -0.4193 C   0  0  0  0  0  0  0  0  0  0  0  0
    2.9243    2.1601    0.2491 C   0  0  2  0  0  0  0  0  0  0  0  0
    4.0720    2.2629    1.2419 C   0  0  0  0  0  0  0  0  0  0  0  0
    3.9255    1.3500    2.4111 C   0  0  0  0  0  0  0  0  0  0  0  0
    5.0938    1.2717    3.4055 C   0  0  0  0  0  0  0  0  0  0  0  0
    4.9109    0.0950    4.3715 C   0  0  0  0  0  0  0  0  0  0  0  0
    5.1184    2.5851    4.1957 C   0  0  0  0  0  0  0  0  0  0  0  0
    6.4068    1.1343    2.6256 C   0  0  0  0  0  0  0  0  0  0  0  0
    1.5720    2.2396    0.9695 C   0  0  0  0  0  0  0  0  0  0  0  0
   -4.2866   -2.6055   -1.7610 C   0  0  0  0  0  0  0  0  0  0  0  0
   -5.4052   -3.2872   -2.2143 C   0  0  0  0  0  0  0  0  0  0  0  0
   -2.9953   -0.5646   -1.5777 N   0  0  0  0  0  0  0  0  0  0  0  0
    0.7134    1.3519    0.1648 N   0  0  0  0  0  0  0  0  0  0  0  0
   -1.1155    0.4379   -1.7738 N   0  0  0  0  0  0  0  0  0  0  0  0
   -2.0506   -0.1716   -2.4569 N   0  0  0  0  0  0  0  0  0  0  0  0
   -0.9667    1.3266    1.6970 O   0  0  0  0  0  0  0  0  0  0  0  0
   -6.5844   -4.8389   -4.6293 H   0  0  0  0  0  0  0  0  0  0  0  0
   -6.8752   -3.3312   -5.4628 H   0  0  0  0  0  0  0  0  0  0  0  0
   -8.1936   -4.4437   -5.1832 H   0  0  0  0  0  0  0  0  0  0  0  0
   -7.8539   -4.1080   -2.7318 H   0  0  0  0  0  0  0  0  0  0  0  0
   -8.3837   -2.6750   -3.5804 H   0  0  0  0  0  0  0  0  0  0  0  0
   -6.9373   -0.7761   -3.7934 H   0  0  0  0  0  0  0  0  0  0  0  0
   -4.9806    0.4139   -3.0046 H   0  0  0  0  0  0  0  0  0  0  0  0
   -3.2020   -0.3631    0.5472 H   0  0  0  0  0  0  0  0  0  0  0  0
    1.1774   -0.3796   -0.9590 H   0  0  0  0  0  0  0  0  0  0  0  0
    1.3245    1.1183   -1.8473 H   0  0  0  0  0  0  0  0  0  0  0  0
    3.1571    0.0195    0.2800 H   0  0  0  0  0  0  0  0  0  0  0  0
    3.5888    0.7579   -1.2440 H   0  0  0  0  0  0  0  0  0  0  0  0
    3.0124    2.9378   -0.4805 H   0  0  0  0  0  0  0  0  0  0  0  0
    4.1205    3.2695    1.6014 H   0  0  0  0  0  0  0  0  0  0  0  0
    4.9823    2.0206    0.7344 H   0  0  0  0  0  0  0  0  0  0  0  0
    3.7647    0.3638    2.0285 H   0  0  0  0  0  0  0  0  0  0  0  0
    3.0615    1.6665    2.9574 H   0  0  0  0  0  0  0  0  0  0  0  0
    4.1185    0.3148    5.0561 H   0  0  0  0  0  0  0  0  0  0  0  0
    5.8184   -0.0637    4.9158 H   0  0  0  0  0  0  0  0  0  0  0  0
    4.6682   -0.7872    3.8168 H   0  0  0  0  0  0  0  0  0  0  0  0
    4.1940    2.7030    4.7215 H   0  0  0  0  0  0  0  0  0  0  0  0
    5.2516    3.4047    3.5209 H   0  0  0  0  0  0  0  0  0  0  0  0
    5.9269    2.5644    4.8964 H   0  0  0  0  0  0  0  0  0  0  0  0
    6.4329    0.1840    2.1347 H   0  0  0  0  0  0  0  0  0  0  0  0
    7.2325    1.2088    3.3020 H   0  0  0  0  0  0  0  0  0  0  0  0
    6.4713    1.9144    1.8960 H   0  0  0  0  0  0  0  0  0  0  0  0
    1.6519    1.8872    1.9767 H   0  0  0  0  0  0  0  0  0  0  0  0
    1.1954    3.2411    0.9703 H   0  0  0  0  0  0  0  0  0  0  0  0
   -3.5620   -3.1054   -1.2073 H   0  0  0  0  0  0  0  0  0  0  0  0
   -5.5218   -4.2976   -1.9972 H   0  0  0  0  0  0  0  0  0  0  0  0
  1  2  1  0  0  0  0
  1 27  1  0  0  0  0
  1 28  1  0  0  0  0
  1 29  1  0  0  0  0
  2  3  1  0  0  0  0
  2 30  1  0  0  0  0
  2 31  1  0  0  0  0
  3 21  1  0  0  0  0
  3  4  2  0  0  0  0
  4  5  1  0  0  0  0
  4 32  1  0  0  0  0
  5 33  1  0  0  0  0
  5  6  2  0  0  0  0
  6 22  1  0  0  0  0
  6 20  1  0  0  0  0
  7 22  1  0  0  0  0
  7 34  1  0  0  0  0
  7  8  2  0  0  0  0
  8  9  1  0  0  0  0
  8 24  1  0  0  0  0
  9 23  1  0  0  0  0
  9 26  2  0  0  0  0
 10 23  1  0  0  0  0
 10 11  1  0  0  0  0
 10 35  1  0  0  0  0
 10 36  1  0  0  0  0
 11 12  1  0  0  0  0
 11 37  1  0  0  0  0
 11 38  1  0  0  0  0
 12 13  1  0  0  0  0
 12 19  1  0  0  0  0
 12 39  1  6  0  0  0
 13 14  1  0  0  0  0
 13 40  1  0  0  0  0
 13 41  1  0  0  0  0
 14 15  1  0  0  0  0
 14 42  1  0  0  0  0
 14 43  1  0  0  0  0
 15 16  1  0  0  0  0
 15 17  1  0  0  0  0
 15 18  1  0  0  0  0
 16 44  1  0  0  0  0
 16 45  1  0  0  0  0
 16 46  1  0  0  0  0
 17 47  1  0  0  0  0
 17 48  1  0  0  0  0
 17 49  1  0  0  0  0
 18 50  1  0  0  0  0
 18 51  1  0  0  0  0
 18 52  1  0  0  0  0
 19 23  1  0  0  0  0
 19 53  1  0  0  0  0
 19 54  1  0  0  0  0
 20 55  1  0  0  0  0
 20 21  2  0  0  0  0
 21 56  1  0  0  0  0
 22 25  1  0  0  0  0
 24 25  2  0  0  0  0
M  END
>  <score>
0.42425107955932617

$$$$
Z4268424147
 OpenBabel08202115463D

 42 44  0  0  0  0  0  0  0  0999 V2000
   -0.3862    2.8858   -0.1625 O   0  0  0  0  0  0  0  0  0  0  0  0
    3.1949   -1.2543   -0.0311 O   0  0  0  0  0  0  0  0  0  0  0  0
    0.2022    1.8382    0.0928 C   0  0  0  0  0  0  0  0  0  0  0  0
   -1.5879    0.4335   -0.7578 C   0  0  0  0  0  0  0  0  0  0  0  0
   -1.9200   -1.0422   -0.9075 C   0  0  0  0  0  0  0  0  0  0  0  0
   -3.2959   -1.2831   -1.4686 C   0  0  0  0  0  0  0  0  0  0  0  0
   -4.0113   -2.3953   -1.0607 C   0  0  0  0  0  0  0  0  0  0  0  0
   -5.2707   -2.6049   -1.5878 C   0  0  0  0  0  0  0  0  0  0  0  0
   -5.7673   -1.6953   -2.5029 C   0  0  0  0  0  0  0  0  0  0  0  0
   -7.1228   -1.8818   -3.1038 C   0  0  0  0  0  0  0  0  0  0  0  0
   -4.9865   -0.6098   -2.8518 C   0  0  0  0  0  0  0  0  0  0  0  0
    2.4441    0.7227    0.4570 C   0  0  0  0  0  0  0  0  0  0  0  0
    4.1575   -0.6288    0.6914 C   0  0  0  0  0  0  0  0  0  0  0  0
    3.7406    0.6055    1.0235 C   0  0  0  0  0  0  0  0  0  0  0  0
    4.4902    1.6426    1.8260 C   0  0  0  0  0  0  0  0  0  0  0  0
    4.3592    1.4846    3.3534 C   0  0  0  0  0  0  0  0  0  0  0  0
    5.8838    1.6291    3.4807 C   0  0  0  0  0  0  0  0  0  0  0  0
    6.0095    1.3660    1.9729 C   0  0  0  0  0  0  0  0  0  0  0  0
   -0.3765    0.6573    0.0169 N   0  0  0  0  0  0  0  0  0  0  0  0
   -3.7667   -0.3908   -2.3515 N   0  0  0  0  0  0  0  0  0  0  0  0
    1.5489    1.7863    0.4914 N   0  0  0  0  0  0  0  0  0  0  0  0
    2.1018   -0.3735   -0.1807 N   0  0  0  0  0  0  0  0  0  0  0  0
   -7.4938   -3.2130   -3.0182 F   0  0  0  0  0  0  0  0  0  0  0  0
   -7.1351   -1.5990   -4.4373 F   0  0  0  0  0  0  0  0  0  0  0  0
    0.0227   -0.0969    0.4989 H   0  0  0  0  0  0  0  0  0  0  0  0
   -1.4548    0.8555   -1.7320 H   0  0  0  0  0  0  0  0  0  0  0  0
   -2.4041    0.9204   -0.2662 H   0  0  0  0  0  0  0  0  0  0  0  0
   -1.8593   -1.5044    0.0557 H   0  0  0  0  0  0  0  0  0  0  0  0
   -1.2018   -1.4881   -1.5635 H   0  0  0  0  0  0  0  0  0  0  0  0
   -3.6083   -3.0607   -0.3703 H   0  0  0  0  0  0  0  0  0  0  0  0
   -5.8343   -3.4308   -1.3019 H   0  0  0  0  0  0  0  0  0  0  0  0
   -7.8218   -1.2649   -2.5788 H   0  0  0  0  0  0  0  0  0  0  0  0
   -5.3676    0.0716   -3.5389 H   0  0  0  0  0  0  0  0  0  0  0  0
    1.9112    2.6248    0.8465 H   0  0  0  0  0  0  0  0  0  0  0  0
    5.0771   -1.0408    0.9489 H   0  0  0  0  0  0  0  0  0  0  0  0
    4.2512    2.6191    1.4595 H   0  0  0  0  0  0  0  0  0  0  0  0
    3.9804    0.5339    3.6657 H   0  0  0  0  0  0  0  0  0  0  0  0
    3.8027    2.2648    3.8295 H   0  0  0  0  0  0  0  0  0  0  0  0
    6.2098    2.6013    3.7866 H   0  0  0  0  0  0  0  0  0  0  0  0
    6.3464    0.8869    4.0972 H   0  0  0  0  0  0  0  0  0  0  0  0
    6.3017    0.3676    1.7229 H   0  0  0  0  0  0  0  0  0  0  0  0
    6.6360    2.0619    1.4551 H   0  0  0  0  0  0  0  0  0  0  0  0
  3 19  1  0  0  0  0
  3 21  1  0  0  0  0
  3  1  2  0  0  0  0
  4 19  1  0  0  0  0
  4  5  1  0  0  0  0
  4 26  1  0  0  0  0
  4 27  1  0  0  0  0
  5  6  1  0  0  0  0
  5 28  1  0  0  0  0
  5 29  1  0  0  0  0
  6 20  1  0  0  0  0
  6  7  2  0  0  0  0
  7  8  1  0  0  0  0
  7 30  1  0  0  0  0
  8 31  1  0  0  0  0
  8  9  2  0  0  0  0
  9 10  1  0  0  0  0
  9 11  1  0  0  0  0
 10 23  1  0  0  0  0
 10 24  1  0  0  0  0
 10 32  1  0  0  0  0
 11 33  1  0  0  0  0
 11 20  2  0  0  0  0
 12 21  1  0  0  0  0
 12 14  1  0  0  0  0
 12 22  2  0  0  0  0
 13  2  1  0  0  0  0
 13 35  1  0  0  0  0
 13 14  2  0  0  0  0
 14 15  1  0  0  0  0
 15 16  1  0  0  0  0
 15 18  1  0  0  0  0
 15 36  1  0  0  0  0
 16 17  1  0  0  0  0
 16 37  1  0  0  0  0
 16 38  1  0  0  0  0
 17 18  1  0  0  0  0
 17 39  1  0  0  0  0
 17 40  1  0  0  0  0
 18 41  1  0  0  0  0
 18 42  1  0  0  0  0
 19 25  1  0  0  0  0
 21 34  1  0  0  0  0
 22  2  1  0  0  0  0
M  END
>  <score>
0.42437779903411865

$$$$
Z4309968908
 OpenBabel08202115463D

 50 52  0  0  0  0  0  0  0  0999 V2000
    5.3268    0.2034    3.9740 C   0  0  0  0  0  0  0  0  0  0  0  0
    5.2148    1.2493    2.8825 C   0  0  0  0  0  0  0  0  0  0  0  0
    6.3252    2.2743    3.0462 C   0  0  0  0  0  0  0  0  0  0  0  0
    3.8621    1.9310    2.9508 C   0  0  0  0  0  0  0  0  0  0  0  0
    3.0457    1.1614    1.9262 C   0  0  1  0  0  0  0  0  0  0  0  0
    1.9159    2.0138    1.3635 C   0  0  0  0  0  0  0  0  0  0  0  0
    1.0412    1.2647    0.3771 C   0  0  0  0  0  0  0  0  0  0  0  0
   -0.9310    1.3706   -1.1061 C   0  0  0  0  0  0  0  0  0  0  0  0
   -2.0112    0.6418   -0.3471 C   0  0  0  0  0  0  0  0  0  0  0  0
   -3.1989    0.1476   -1.1288 C   0  0  0  0  0  0  0  0  0  0  0  0
   -4.7360   -2.4118   -2.8764 C   0  0  0  0  0  0  0  0  0  0  0  0
   -3.8412   -3.0624   -3.7049 C   0  0  0  0  0  0  0  0  0  0  0  0
   -4.1891   -4.2712   -4.2874 C   0  0  0  0  0  0  0  0  0  0  0  0
   -5.4327   -4.8232   -4.0440 C   0  0  0  0  0  0  0  0  0  0  0  0
   -6.3299   -4.1705   -3.2131 C   0  0  0  0  0  0  0  0  0  0  0  0
   -5.9832   -2.9653   -2.6323 C   0  0  0  0  0  0  0  0  0  0  0  0
   -5.1444   -0.0361   -2.1525 C   0  0  0  0  0  0  0  0  0  0  0  0
   -4.3758    0.8460   -1.4309 C   0  0  0  0  0  0  0  0  0  0  0  0
    4.0900    0.8563    0.8653 C   0  0  0  0  0  0  0  0  0  0  0  0
    2.5004   -0.0496    2.4907 O   0  0  0  0  0  0  0  0  0  0  0  0
    1.2845    0.1021    0.0647 O   0  0  0  0  0  0  0  0  0  0  0  0
    5.3044    0.6251    1.5881 O   0  0  0  0  0  0  0  0  0  0  0  0
    0.0013    1.9529   -0.1199 N   0  0  0  0  0  0  0  0  0  0  0  0
   -3.2284   -1.0887   -1.6351 N   0  0  0  0  0  0  0  0  0  0  0  0
   -4.4330   -1.1840   -2.2540 N   0  0  0  0  0  0  0  0  0  0  0  0
    6.3389   -0.1375    4.0395 H   0  0  0  0  0  0  0  0  0  0  0  0
    4.6867   -0.6224    3.7433 H   0  0  0  0  0  0  0  0  0  0  0  0
    5.0338    0.6319    4.9096 H   0  0  0  0  0  0  0  0  0  0  0  0
    7.2745    1.7930    2.9372 H   0  0  0  0  0  0  0  0  0  0  0  0
    6.2600    2.7183    4.0175 H   0  0  0  0  0  0  0  0  0  0  0  0
    6.2225    3.0333    2.2989 H   0  0  0  0  0  0  0  0  0  0  0  0
    3.4354    1.8433    3.9281 H   0  0  0  0  0  0  0  0  0  0  0  0
    3.9378    2.9648    2.6855 H   0  0  0  0  0  0  0  0  0  0  0  0
    1.6665   -0.2557    2.0621 H   0  0  0  0  0  0  0  0  0  0  0  0
    2.3426    2.8597    0.8663 H   0  0  0  0  0  0  0  0  0  0  0  0
    1.3044    2.3478    2.1756 H   0  0  0  0  0  0  0  0  0  0  0  0
   -0.1442    2.8737    0.1821 H   0  0  0  0  0  0  0  0  0  0  0  0
   -0.4080    0.6863   -1.7410 H   0  0  0  0  0  0  0  0  0  0  0  0
   -1.3649    2.1481   -1.6994 H   0  0  0  0  0  0  0  0  0  0  0  0
   -2.3781    1.3076    0.4060 H   0  0  0  0  0  0  0  0  0  0  0  0
   -1.5577   -0.2084    0.1180 H   0  0  0  0  0  0  0  0  0  0  0  0
   -2.9070   -2.6451   -3.8912 H   0  0  0  0  0  0  0  0  0  0  0  0
   -3.5144   -4.7629   -4.9076 H   0  0  0  0  0  0  0  0  0  0  0  0
   -5.6952   -5.7281   -4.4843 H   0  0  0  0  0  0  0  0  0  0  0  0
   -7.2642   -4.5877   -3.0268 H   0  0  0  0  0  0  0  0  0  0  0  0
   -6.6579   -2.4737   -2.0121 H   0  0  0  0  0  0  0  0  0  0  0  0
   -6.0905    0.1436   -2.5452 H   0  0  0  0  0  0  0  0  0  0  0  0
   -4.6162    1.8225   -1.1658 H   0  0  0  0  0  0  0  0  0  0  0  0
    4.2020    1.6866    0.1998 H   0  0  0  0  0  0  0  0  0  0  0  0
    3.8143   -0.0141    0.3073 H   0  0  0  0  0  0  0  0  0  0  0  0
  1  2  1  0  0  0  0
  1 26  1  0  0  0  0
  1 27  1  0  0  0  0
  1 28  1  0  0  0  0
  2  3  1  0  0  0  0
  2  4  1  0  0  0  0
  2 22  1  0  0  0  0
  3 29  1  0  0  0  0
  3 30  1  0  0  0  0
  3 31  1  0  0  0  0
  4  5  1  0  0  0  0
  4 32  1  0  0  0  0
  4 33  1  0  0  0  0
  5 20  1  1  0  0  0
  5  6  1  0  0  0  0
  5 19  1  0  0  0  0
  6  7  1  0  0  0  0
  6 35  1  0  0  0  0
  6 36  1  0  0  0  0
  7 23  1  0  0  0  0
  7 21  2  0  0  0  0
  8 23  1  0  0  0  0
  8  9  1  0  0  0  0
  8 38  1  0  0  0  0
  8 39  1  0  0  0  0
  9 10  1  0  0  0  0
  9 40  1  0  0  0  0
  9 41  1  0  0  0  0
 10 18  1  0  0  0  0
 10 24  2  0  0  0  0
 11 25  1  0  0  0  0
 11 16  1  0  0  0  0
 11 12  2  0  0  0  0
 12 13  1  0  0  0  0
 12 42  1  0  0  0  0
 13 43  1  0  0  0  0
 13 14  2  0  0  0  0
 14 15  1  0  0  0  0
 14 44  1  0  0  0  0
 15 45  1  0  0  0  0
 15 16  2  0  0  0  0
 16 46  1  0  0  0  0
 17 25  1  0  0  0  0
 17 47  1  0  0  0  0
 17 18  2  0  0  0  0
 18 48  1  0  0  0  0
 19 22  1  0  0  0  0
 19 49  1  0  0  0  0
 19 50  1  0  0  0  0
 20 34  1  0  0  0  0
 23 37  1  0  0  0  0
 24 25  1  0  0  0  0
M  END
>  <score>
0.42437857389450073

$$$$
Z3346932304
 OpenBabel08202115463D

 44 47  0  0  0  0  0  0  0  0999 V2000
    5.5374    0.5002    1.4743 C   0  0  0  0  0  0  0  0  0  0  0  0
    5.4196    1.0941    2.8483 C   0  0  0  0  0  0  0  0  0  0  0  0
    4.1315    1.8630    3.1675 C   0  0  0  0  0  0  0  0  0  0  0  0
    2.1355    0.9239    1.8578 C   0  0  0  0  0  0  0  0  0  0  0  0
    1.4005    1.4272    0.8109 C   0  0  0  0  0  0  0  0  0  0  0  0
    0.2485    0.8232    0.1020 C   0  0  0  0  0  0  0  0  0  0  0  0
   -0.9619    1.4876   -0.0209 C   0  0  0  0  0  0  0  0  0  0  0  0
   -2.0149    0.8877   -0.6854 C   0  0  0  0  0  0  0  0  0  0  0  0
   -1.8591   -0.3759   -1.2335 C   0  0  0  0  0  0  0  0  0  0  0  0
   -2.8645   -2.1793   -2.4220 C   0  0  0  0  0  0  0  0  0  0  0  0
   -4.2229   -2.5060   -2.9703 C   0  0  0  0  0  0  0  0  0  0  0  0
   -5.2075   -1.5430   -3.0843 C   0  0  0  0  0  0  0  0  0  0  0  0
   -6.4395   -1.9087   -3.5944 C   0  0  0  0  0  0  0  0  0  0  0  0
   -6.6370   -3.2219   -3.9740 C   0  0  0  0  0  0  0  0  0  0  0  0
   -5.5945   -4.1206   -3.8288 C   0  0  0  0  0  0  0  0  0  0  0  0
   -0.6522   -1.0382   -1.1108 C   0  0  0  0  0  0  0  0  0  0  0  0
    0.4040   -0.4367   -0.4444 C   0  0  0  0  0  0  0  0  0  0  0  0
    1.9709    2.6754    0.5266 C   0  0  0  0  0  0  0  0  0  0  0  0
    4.1821    3.0333    4.0987 C   0  0  0  0  0  0  0  0  0  0  0  0
    3.6626    1.7116    4.5807 C   0  0  0  0  0  0  0  0  0  0  0  0
    6.3001    0.9727    3.6678 O   0  0  0  0  0  0  0  0  0  0  0  0
   -2.9560   -0.8586   -1.8641 O   0  0  0  0  0  0  0  0  0  0  0  0
    3.0807    1.8478    2.1531 N   0  0  0  0  0  0  0  0  0  0  0  0
   -4.3967   -3.7809   -3.3318 N   0  0  0  0  0  0  0  0  0  0  0  0
    3.0000    2.9317    1.3396 N   0  0  0  0  0  0  0  0  0  0  0  0
    5.6301    1.2848    0.7527 H   0  0  0  0  0  0  0  0  0  0  0  0
    4.6637   -0.0794    1.2604 H   0  0  0  0  0  0  0  0  0  0  0  0
    6.4023   -0.1282    1.4306 H   0  0  0  0  0  0  0  0  0  0  0  0
    1.9932    0.0094    2.3320 H   0  0  0  0  0  0  0  0  0  0  0  0
   -1.0777    2.4373    0.3869 H   0  0  0  0  0  0  0  0  0  0  0  0
   -2.9243    1.3844   -0.7741 H   0  0  0  0  0  0  0  0  0  0  0  0
   -2.5935   -2.8830   -1.6628 H   0  0  0  0  0  0  0  0  0  0  0  0
   -2.1353   -2.1999   -3.2048 H   0  0  0  0  0  0  0  0  0  0  0  0
   -5.0252   -0.5618   -2.7920 H   0  0  0  0  0  0  0  0  0  0  0  0
   -7.2025   -1.2086   -3.6904 H   0  0  0  0  0  0  0  0  0  0  0  0
   -7.5517   -3.5296   -4.3616 H   0  0  0  0  0  0  0  0  0  0  0  0
   -5.7479   -5.1073   -4.1193 H   0  0  0  0  0  0  0  0  0  0  0  0
   -0.5365   -1.9879   -1.5186 H   0  0  0  0  0  0  0  0  0  0  0  0
    1.3134   -0.9334   -0.3557 H   0  0  0  0  0  0  0  0  0  0  0  0
    1.6369    3.3182   -0.2196 H   0  0  0  0  0  0  0  0  0  0  0  0
    3.5101    3.8547    3.9626 H   0  0  0  0  0  0  0  0  0  0  0  0
    5.1251    3.3975    4.4494 H   0  0  0  0  0  0  0  0  0  0  0  0
    4.2350    1.1328    5.2751 H   0  0  0  0  0  0  0  0  0  0  0  0
    2.6201    1.5900    4.7884 H   0  0  0  0  0  0  0  0  0  0  0  0
  1  2  1  0  0  0  0
  1 26  1  0  0  0  0
  1 27  1  0  0  0  0
  1 28  1  0  0  0  0
  2  3  1  0  0  0  0
  2 21  2  0  0  0  0
  3 23  1  0  0  0  0
  3 19  1  0  0  0  0
  3 20  1  0  0  0  0
  4 23  1  0  0  0  0
  4 29  1  0  0  0  0
  4  5  2  0  0  0  0
  5  6  1  0  0  0  0
  5 18  1  0  0  0  0
  6 17  1  0  0  0  0
  6  7  2  0  0  0  0
  7  8  1  0  0  0  0
  7 30  1  0  0  0  0
  8 31  1  0  0  0  0
  8  9  2  0  0  0  0
  9 22  1  0  0  0  0
  9 16  1  0  0  0  0
 10 22  1  0  0  0  0
 10 11  1  0  0  0  0
 10 32  1  0  0  0  0
 10 33  1  0  0  0  0
 11 24  1  0  0  0  0
 11 12  2  0  0  0  0
 12 13  1  0  0  0  0
 12 34  1  0  0  0  0
 13 35  1  0  0  0  0
 13 14  2  0  0  0  0
 14 15  1  0  0  0  0
 14 36  1  0  0  0  0
 15 37  1  0  0  0  0
 15 24  2  0  0  0  0
 16 38  1  0  0  0  0
 16 17  2  0  0  0  0
 17 39  1  0  0  0  0
 18 40  1  0  0  0  0
 18 25  2  0  0  0  0
 19 20  1  0  0  0  0
 19 41  1  0  0  0  0
 19 42  1  0  0  0  0
 20 43  1  0  0  0  0
 20 44  1  0  0  0  0
 23 25  1  0  0  0  0
M  END
>  <score>
0.42441141605377197

$$$$
PV-003053794928
 OpenBabel08202115463D

 47 49  0  0  0  0  0  0  0  0999 V2000
   -2.2096   -3.0243   -1.8163 C   0  0  0  0  0  0  0  0  0  0  0  0
   -3.2996   -1.9960   -1.6972 C   0  0  0  0  0  0  0  0  0  0  0  0
   -5.4304   -1.4010   -2.2722 C   0  0  0  0  0  0  0  0  0  0  0  0
   -6.6617   -1.7670   -3.0149 C   0  0  0  0  0  0  0  0  0  0  0  0
   -5.3423   -0.2196   -1.5567 C   0  0  0  0  0  0  0  0  0  0  0  0
   -4.1673    0.0666   -0.8895 C   0  0  0  0  0  0  0  0  0  0  0  0
   -3.1247   -0.8385   -0.9628 C   0  0  0  0  0  0  0  0  0  0  0  0
   -1.8279   -0.5802   -0.2646 C   0  0  0  0  0  0  0  0  0  0  0  0
   -0.3609    1.0870    0.7782 C   0  0  0  0  0  0  0  0  0  0  0  0
    0.8538    1.1453   -0.1195 C   0  0  0  0  0  0  0  0  0  0  0  0
    2.1396    1.5351    0.5593 C   0  0  0  0  0  0  0  0  0  0  0  0
    4.0781    1.4914    1.5876 C   0  0  0  0  0  0  0  0  0  0  0  0
    5.4186    1.2957    2.3049 C   0  0  0  0  0  0  0  0  0  0  0  0
    6.5598    1.8571    1.4514 C   0  0  0  0  0  0  0  0  0  0  0  0
    5.6979   -0.1858    2.5661 C   0  0  0  0  0  0  0  0  0  0  0  0
    5.3932    2.0279    3.6507 C   0  0  0  0  0  0  0  0  0  0  0  0
    3.1303    0.6729    1.0984 C   0  0  0  0  0  0  0  0  0  0  0  0
   -4.4294   -2.2894   -2.3482 N   0  0  0  0  0  0  0  0  0  0  0  0
   -6.7787   -2.8452   -3.7894 N   0  0  0  0  0  0  0  0  0  0  0  0
   -8.0293   -2.7398   -4.2196 N   0  0  0  0  0  0  0  0  0  0  0  0
   -8.6650   -1.6722   -3.7556 N   0  0  0  0  0  0  0  0  0  0  0  0
   -7.7996   -1.0345   -2.9790 N   0  0  0  0  0  0  0  0  0  0  0  0
   -1.5664    0.6984    0.0616 N   0  0  0  0  0  0  0  0  0  0  0  0
    2.4690    2.7968    0.7170 N   0  0  0  0  0  0  0  0  0  0  0  0
   -1.0512   -1.5064   -0.0098 O   0  0  0  0  0  0  0  0  0  0  0  0
    3.7193    2.7817    1.3724 O   0  0  0  0  0  0  0  0  0  0  0  0
   -2.4346   -3.6916   -2.6219 H   0  0  0  0  0  0  0  0  0  0  0  0
   -2.1408   -3.5781   -0.9033 H   0  0  0  0  0  0  0  0  0  0  0  0
   -1.2776   -2.5351   -2.0084 H   0  0  0  0  0  0  0  0  0  0  0  0
   -8.4446   -3.3901   -4.8238 H   0  0  0  0  0  0  0  0  0  0  0  0
   -6.1455    0.4401   -1.5222 H   0  0  0  0  0  0  0  0  0  0  0  0
   -4.0688    0.9457   -0.3426 H   0  0  0  0  0  0  0  0  0  0  0  0
   -2.2102    1.3924   -0.1922 H   0  0  0  0  0  0  0  0  0  0  0  0
   -0.1791    0.3741    1.5552 H   0  0  0  0  0  0  0  0  0  0  0  0
   -0.5151    2.0539    1.2097 H   0  0  0  0  0  0  0  0  0  0  0  0
    0.6590    1.8591   -0.8924 H   0  0  0  0  0  0  0  0  0  0  0  0
    0.9901    0.1769   -0.5537 H   0  0  0  0  0  0  0  0  0  0  0  0
    6.4026    2.9028    1.2880 H   0  0  0  0  0  0  0  0  0  0  0  0
    6.5840    1.3489    0.5101 H   0  0  0  0  0  0  0  0  0  0  0  0
    7.4900    1.7116    1.9599 H   0  0  0  0  0  0  0  0  0  0  0  0
    5.6768   -0.7218    1.6403 H   0  0  0  0  0  0  0  0  0  0  0  0
    4.9503   -0.5791    3.2227 H   0  0  0  0  0  0  0  0  0  0  0  0
    6.6620   -0.2925    3.0178 H   0  0  0  0  0  0  0  0  0  0  0  0
    5.0372    3.0267    3.5072 H   0  0  0  0  0  0  0  0  0  0  0  0
    6.3817    2.0571    4.0593 H   0  0  0  0  0  0  0  0  0  0  0  0
    4.7430    1.5112    4.3253 H   0  0  0  0  0  0  0  0  0  0  0  0
    3.1242   -0.3670    1.1119 H   0  0  0  0  0  0  0  0  0  0  0  0
  1  2  1  0  0  0  0
  1 27  1  0  0  0  0
  1 28  1  0  0  0  0
  1 29  1  0  0  0  0
  2  7  1  0  0  0  0
  2 18  2  0  0  0  0
  3 18  1  0  0  0  0
  3  4  1  0  0  0  0
  3  5  2  0  0  0  0
  4 22  1  0  0  0  0
  4 19  2  0  0  0  0
  5  6  1  0  0  0  0
  5 31  1  0  0  0  0
  6 32  1  0  0  0  0
  6  7  2  0  0  0  0
  7  8  1  0  0  0  0
  8 23  1  0  0  0  0
  8 25  2  0  0  0  0
  9 23  1  0  0  0  0
  9 10  1  0  0  0  0
  9 34  1  0  0  0  0
  9 35  1  0  0  0  0
 10 11  1  0  0  0  0
 10 36  1  0  0  0  0
 10 37  1  0  0  0  0
 11 17  1  0  0  0  0
 11 24  2  0  0  0  0
 12 26  1  0  0  0  0
 12 13  1  0  0  0  0
 12 17  2  0  0  0  0
 13 14  1  0  0  0  0
 13 15  1  0  0  0  0
 13 16  1  0  0  0  0
 14 38  1  0  0  0  0
 14 39  1  0  0  0  0
 14 40  1  0  0  0  0
 15 41  1  0  0  0  0
 15 42  1  0  0  0  0
 15 43  1  0  0  0  0
 16 44  1  0  0  0  0
 16 45  1  0  0  0  0
 16 46  1  0  0  0  0
 17 47  1  0  0  0  0
 19 20  1  0  0  0  0
 20 21  1  0  0  0  0
 20 30  1  0  0  0  0
 21 22  2  0  0  0  0
 23 33  1  0  0  0  0
 24 26  1  0  0  0  0
M  END
>  <score>
0.42446261644363403

$$$$
PV-004106236123
 OpenBabel08202115463D

 55 56  0  0  0  0  0  0  0  0999 V2000
   -6.0215   -2.0765   -4.4048 C   0  0  0  0  0  0  0  0  0  0  0  0
   -6.5003   -2.5221   -3.0191 C   0  0  1  0  0  0  0  0  0  0  0  0
   -6.3582   -4.0383   -2.7468 C   0  0  0  0  0  0  0  0  0  0  0  0
   -5.0200   -3.6783   -2.0667 C   0  0  0  0  0  0  0  0  0  0  0  0
   -4.5228   -1.2524   -2.2310 C   0  0  0  0  0  0  0  0  0  0  0  0
   -3.3442   -1.2950   -1.2635 C   0  0  0  0  0  0  0  0  0  0  0  0
   -1.2322   -0.2612   -0.5569 C   0  0  1  0  0  0  0  0  0  0  0  0
    0.0753   -0.7240   -1.2504 C   0  0  0  0  0  0  0  0  0  0  0  0
    0.7659    0.5241   -0.6445 C   0  0  1  0  0  0  0  0  0  0  0  0
    2.4021    1.1685    1.1072 C   0  0  0  0  0  0  0  0  0  0  0  0
    3.0367    0.7819    2.4149 C   0  0  0  0  0  0  0  0  0  0  0  0
    3.9640    1.8834    2.9116 C   0  0  1  0  0  0  0  0  0  0  0  0
    3.1653    3.1810    3.0509 C   0  0  0  0  0  0  0  0  0  0  0  0
    4.5748    1.5179    4.2034 C   0  0  0  0  0  0  0  0  0  0  0  0
    5.8904    3.2664    2.2083 C   0  0  0  0  0  0  0  0  0  0  0  0
    5.8368    0.9153    1.5707 C   0  0  0  0  0  0  0  0  0  0  0  0
   -0.6294    1.1544   -0.4297 C   0  0  0  0  0  0  0  0  0  0  0  0
   -5.5269   -2.2903   -1.9280 N   0  0  0  0  0  0  0  0  0  0  0  0
   -2.4254   -0.3356   -1.4062 N   0  0  0  0  0  0  0  0  0  0  0  0
    1.5024    0.2650    0.5836 N   0  0  0  0  0  0  0  0  0  0  0  0
    5.0091    2.1117    1.8792 N   0  0  0  0  0  0  0  0  0  0  0  0
   -3.2185   -2.2146   -0.4560 O   0  0  0  0  0  0  0  0  0  0  0  0
    2.6404    2.2045    0.5158 O   0  0  0  0  0  0  0  0  0  0  0  0
    4.9734    0.2484    4.1836 F   0  0  0  0  0  0  0  0  0  0  0  0
    3.5686    1.4653    5.1302 F   0  0  0  0  0  0  0  0  0  0  0  0
   -6.2229   -1.0336   -4.5340 H   0  0  0  0  0  0  0  0  0  0  0  0
   -6.5380   -2.6352   -5.1571 H   0  0  0  0  0  0  0  0  0  0  0  0
   -4.9691   -2.2496   -4.4909 H   0  0  0  0  0  0  0  0  0  0  0  0
   -7.4774   -2.1269   -2.8347 H   0  0  0  0  0  0  0  0  0  0  0  0
   -7.0995   -4.4519   -2.0953 H   0  0  0  0  0  0  0  0  0  0  0  0
   -6.2710   -4.6484   -3.6215 H   0  0  0  0  0  0  0  0  0  0  0  0
   -4.1606   -3.7770   -2.6964 H   0  0  0  0  0  0  0  0  0  0  0  0
   -4.8430   -4.1818   -1.1393 H   0  0  0  0  0  0  0  0  0  0  0  0
   -4.9890   -0.2916   -2.1647 H   0  0  0  0  0  0  0  0  0  0  0  0
   -4.1585   -1.4047   -3.2255 H   0  0  0  0  0  0  0  0  0  0  0  0
   -2.5532    0.3419   -2.1026 H   0  0  0  0  0  0  0  0  0  0  0  0
   -1.4289   -0.7421    0.3785 H   0  0  0  0  0  0  0  0  0  0  0  0
    0.0327   -0.7341   -2.3195 H   0  0  0  0  0  0  0  0  0  0  0  0
    0.4585   -1.6593   -0.8993 H   0  0  0  0  0  0  0  0  0  0  0  0
    1.3905    1.0586   -1.3295 H   0  0  0  0  0  0  0  0  0  0  0  0
    1.3536   -0.5813    1.0548 H   0  0  0  0  0  0  0  0  0  0  0  0
    3.6010   -0.1169    2.2788 H   0  0  0  0  0  0  0  0  0  0  0  0
    2.2692    0.6152    3.1415 H   0  0  0  0  0  0  0  0  0  0  0  0
    2.6632    3.3921    2.1299 H   0  0  0  0  0  0  0  0  0  0  0  0
    3.8304    3.9854    3.2867 H   0  0  0  0  0  0  0  0  0  0  0  0
    2.4437    3.0732    3.8336 H   0  0  0  0  0  0  0  0  0  0  0  0
    5.3502    2.2049    4.4710 H   0  0  0  0  0  0  0  0  0  0  0  0
    5.3369    4.1771    2.1119 H   0  0  0  0  0  0  0  0  0  0  0  0
    6.7228    3.2824    1.5362 H   0  0  0  0  0  0  0  0  0  0  0  0
    6.2446    3.1694    3.2133 H   0  0  0  0  0  0  0  0  0  0  0  0
    5.2046    0.0564    1.4837 H   0  0  0  0  0  0  0  0  0  0  0  0
    6.5444    0.7589    2.3579 H   0  0  0  0  0  0  0  0  0  0  0  0
    6.3568    1.0699    0.6484 H   0  0  0  0  0  0  0  0  0  0  0  0
   -0.9315    1.8360   -1.1972 H   0  0  0  0  0  0  0  0  0  0  0  0
   -0.7674    1.6111    0.5281 H   0  0  0  0  0  0  0  0  0  0  0  0
  1  2  1  0  0  0  0
  1 26  1  0  0  0  0
  1 27  1  0  0  0  0
  1 28  1  0  0  0  0
  2  3  1  0  0  0  0
  2 18  1  0  0  0  0
  2 29  1  1  0  0  0
  3  4  1  0  0  0  0
  3 30  1  0  0  0  0
  3 31  1  0  0  0  0
  4 18  1  0  0  0  0
  4 32  1  0  0  0  0
  4 33  1  0  0  0  0
  5 18  1  0  0  0  0
  5  6  1  0  0  0  0
  5 34  1  0  0  0  0
  5 35  1  0  0  0  0
  6 19  1  0  0  0  0
  6 22  2  0  0  0  0
  7 19  1  0  0  0  0
  7  8  1  0  0  0  0
  7 17  1  0  0  0  0
  7 37  1  1  0  0  0
  8  9  1  0  0  0  0
  8 38  1  0  0  0  0
  8 39  1  0  0  0  0
  9 20  1  0  0  0  0
  9 17  1  0  0  0  0
  9 40  1  6  0  0  0
 10 20  1  0  0  0  0
 10 11  1  0  0  0  0
 10 23  2  0  0  0  0
 11 42  1  0  0  0  0
 11 43  1  0  0  0  0
 12 11  1  6  0  0  0
 12 13  1  0  0  0  0
 12 14  1  0  0  0  0
 12 21  1  0  0  0  0
 13 44  1  0  0  0  0
 13 45  1  0  0  0  0
 13 46  1  0  0  0  0
 14 24  1  0  0  0  0
 14 25  1  0  0  0  0
 14 47  1  0  0  0  0
 15 21  1  0  0  0  0
 15 48  1  0  0  0  0
 15 49  1  0  0  0  0
 15 50  1  0  0  0  0
 16 21  1  0  0  0  0
 16 51  1  0  0  0  0
 16 52  1  0  0  0  0
 16 53  1  0  0  0  0
 17 54  1  0  0  0  0
 17 55  1  0  0  0  0
 19 36  1  0  0  0  0
 20 41  1  0  0  0  0
M  END
>  <score>
0.42448979616165161

$$$$
Z4005128041
 OpenBabel08202115463D

 47 50  0  0  0  0  0  0  0  0999 V2000
    5.0915    2.3353    5.6784 O   0  0  0  0  0  0  0  0  0  0  0  0
   -2.0177    2.3282   -1.5162 O   0  0  0  0  0  0  0  0  0  0  0  0
   -5.8145   -1.0482   -2.9756 O   0  0  0  0  0  0  0  0  0  0  0  0
    5.2053    1.7460    4.6162 C   0  0  0  0  0  0  0  0  0  0  0  0
    4.1312    0.7838    4.1338 C   0  0  0  0  0  0  0  0  0  0  0  0
    3.0933    0.7803    1.8358 C   0  0  0  0  0  0  0  0  0  0  0  0
    2.3916   -0.3071    1.3389 C   0  0  0  0  0  0  0  0  0  0  0  0
    1.2491   -0.1074    0.5871 C   0  0  0  0  0  0  0  0  0  0  0  0
    0.8021    1.1802    0.3344 C   0  0  0  0  0  0  0  0  0  0  0  0
   -0.4267    1.3825   -0.4677 C   0  0  0  0  0  0  0  0  0  0  0  0
   -2.1459    0.9906   -1.5873 C   0  0  0  0  0  0  0  0  0  0  0  0
   -3.3444    0.4431   -2.3543 C   0  0  0  0  0  0  0  0  0  0  0  0
   -3.4741   -1.0638   -2.2433 C   0  0  0  0  0  0  0  0  0  0  0  0
   -4.5032   -1.6518   -3.1949 C   0  0  1  0  0  0  0  0  0  0  0  0
   -4.7164   -3.1211   -2.9115 C   0  0  0  0  0  0  0  0  0  0  0  0
   -6.1621   -3.3670   -3.3635 C   0  0  0  0  0  0  0  0  0  0  0  0
   -6.8278   -2.0021   -3.1266 C   0  0  0  0  0  0  0  0  0  0  0  0
    1.5016    2.2644    0.8297 C   0  0  0  0  0  0  0  0  0  0  0  0
    2.6474    2.0640    1.5837 C   0  0  0  0  0  0  0  0  0  0  0  0
    5.5414    0.3062    2.1812 C   0  0  0  0  0  0  0  0  0  0  0  0
    6.4736    1.4545    2.4843 C   0  0  0  0  0  0  0  0  0  0  0  0
    4.2108    0.6293    2.6816 N   0  0  0  0  0  0  0  0  0  0  0  0
   -0.8616    2.5814   -0.7512 N   0  0  0  0  0  0  0  0  0  0  0  0
   -1.1981    0.3540   -0.9715 N   0  0  0  0  0  0  0  0  0  0  0  0
    6.2769    1.9254    3.8406 N   0  0  0  0  0  0  0  0  0  0  0  0
   -3.2452    0.7523   -3.6670 F   0  0  0  0  0  0  0  0  0  0  0  0
   -4.4904    0.9931   -1.8960 F   0  0  0  0  0  0  0  0  0  0  0  0
    4.2745   -0.1689    4.5994 H   0  0  0  0  0  0  0  0  0  0  0  0
    3.1678    1.1683    4.3964 H   0  0  0  0  0  0  0  0  0  0  0  0
    2.7248   -1.2731    1.5319 H   0  0  0  0  0  0  0  0  0  0  0  0
    0.7249   -0.9231    0.2110 H   0  0  0  0  0  0  0  0  0  0  0  0
   -3.7606   -1.3068   -1.2414 H   0  0  0  0  0  0  0  0  0  0  0  0
   -2.5226   -1.5030   -2.4591 H   0  0  0  0  0  0  0  0  0  0  0  0
   -4.1819   -1.5033   -4.2046 H   0  0  0  0  0  0  0  0  0  0  0  0
   -4.6012   -3.3299   -1.8685 H   0  0  0  0  0  0  0  0  0  0  0  0
   -4.0326   -3.7220   -3.4738 H   0  0  0  0  0  0  0  0  0  0  0  0
   -6.2017   -3.6410   -4.3971 H   0  0  0  0  0  0  0  0  0  0  0  0
   -6.6260   -4.1298   -2.7738 H   0  0  0  0  0  0  0  0  0  0  0  0
   -7.4267   -2.0391   -2.2407 H   0  0  0  0  0  0  0  0  0  0  0  0
   -7.4438   -1.7482   -3.9638 H   0  0  0  0  0  0  0  0  0  0  0  0
    1.1684    3.2305    0.6367 H   0  0  0  0  0  0  0  0  0  0  0  0
    3.1716    2.8797    1.9598 H   0  0  0  0  0  0  0  0  0  0  0  0
    5.4983    0.1490    1.1237 H   0  0  0  0  0  0  0  0  0  0  0  0
    5.8987   -0.5815    2.6600 H   0  0  0  0  0  0  0  0  0  0  0  0
    6.2784    2.2554    1.8021 H   0  0  0  0  0  0  0  0  0  0  0  0
    7.4854    1.1259    2.3693 H   0  0  0  0  0  0  0  0  0  0  0  0
    7.0162    2.4345    4.2339 H   0  0  0  0  0  0  0  0  0  0  0  0
  4  5  1  0  0  0  0
  4 25  1  0  0  0  0
  4  1  2  0  0  0  0
  5 22  1  0  0  0  0
  5 28  1  0  0  0  0
  5 29  1  0  0  0  0
  6 22  1  0  0  0  0
  6 19  1  0  0  0  0
  6  7  2  0  0  0  0
  7  8  1  0  0  0  0
  7 30  1  0  0  0  0
  8 31  1  0  0  0  0
  8  9  2  0  0  0  0
  9 10  1  0  0  0  0
  9 18  1  0  0  0  0
 10 24  1  0  0  0  0
 10 23  2  0  0  0  0
 11  2  1  0  0  0  0
 11 12  1  0  0  0  0
 11 24  2  0  0  0  0
 12 26  1  0  0  0  0
 12 27  1  0  0  0  0
 12 13  1  0  0  0  0
 13 14  1  0  0  0  0
 13 32  1  0  0  0  0
 13 33  1  0  0  0  0
 14 15  1  0  0  0  0
 14  3  1  0  0  0  0
 14 34  1  6  0  0  0
 15 16  1  0  0  0  0
 15 35  1  0  0  0  0
 15 36  1  0  0  0  0
 16 17  1  0  0  0  0
 16 37  1  0  0  0  0
 16 38  1  0  0  0  0
 17  3  1  0  0  0  0
 17 39  1  0  0  0  0
 17 40  1  0  0  0  0
 18 41  1  0  0  0  0
 18 19  2  0  0  0  0
 19 42  1  0  0  0  0
 20 22  1  0  0  0  0
 20 21  1  0  0  0  0
 20 43  1  0  0  0  0
 20 44  1  0  0  0  0
 21 25  1  0  0  0  0
 21 45  1  0  0  0  0
 21 46  1  0  0  0  0
 23  2  1  0  0  0  0
 25 47  1  0  0  0  0
M  END
>  <score>
0.42461633682250977

$$$$
Z4665467975
 OpenBabel08202115463D

 42 44  0  0  0  0  0  0  0  0999 V2000
   -6.9805   -1.8562   -3.1536 C   0  0  0  0  0  0  0  0  0  0  0  0
   -5.6460   -1.5063   -2.5386 C   0  0  0  0  0  0  0  0  0  0  0  0
   -5.2724   -0.1613   -2.4293 C   0  0  0  0  0  0  0  0  0  0  0  0
   -4.0557    0.2133   -1.8905 C   0  0  0  0  0  0  0  0  0  0  0  0
   -3.1987   -0.8002   -1.4350 C   0  0  0  0  0  0  0  0  0  0  0  0
   -1.8990   -0.8545   -0.8235 C   0  0  0  0  0  0  0  0  0  0  0  0
   -0.9857    0.2849   -0.4629 C   0  0  0  0  0  0  0  0  0  0  0  0
    1.3431    0.6196    0.4037 C   0  0  0  0  0  0  0  0  0  0  0  0
    4.4557    0.7273    2.1241 C   0  0  0  0  0  0  0  0  0  0  0  0
    4.1675   -0.0932    3.3707 C   0  0  0  0  0  0  0  0  0  0  0  0
    5.0209    2.0803    2.5246 C   0  0  0  0  0  0  0  0  0  0  0  0
    5.4492    0.0060    1.2235 C   0  0  0  0  0  0  0  0  0  0  0  0
    2.7374    2.2220    0.9996 C   0  0  0  0  0  0  0  0  0  0  0  0
    1.5421    2.0061    0.3560 C   0  0  0  0  0  0  0  0  0  0  0  0
    0.6853    2.9864   -0.2355 C   0  0  0  0  0  0  0  0  0  0  0  0
   -1.6208   -2.1834   -0.6151 C   0  0  0  0  0  0  0  0  0  0  0  0
   -3.6196   -2.1223   -1.5476 C   0  0  0  0  0  0  0  0  0  0  0  0
   -4.8178   -2.5226   -2.0949 C   0  0  0  0  0  0  0  0  0  0  0  0
   -1.3502    1.4495   -0.5555 O   0  0  0  0  0  0  0  0  0  0  0  0
   -2.6556   -2.9747   -1.0460 O   0  0  0  0  0  0  0  0  0  0  0  0
    0.2364   -0.1037   -0.0410 N   0  0  0  0  0  0  0  0  0  0  0  0
    2.3465    0.0101    1.0420 N   0  0  0  0  0  0  0  0  0  0  0  0
    3.1948    1.0099    1.3941 N   0  0  0  0  0  0  0  0  0  0  0  0
   -0.0315    3.7454   -0.7177 N   0  0  0  0  0  0  0  0  0  0  0  0
   -6.9148   -2.8122   -3.6296 H   0  0  0  0  0  0  0  0  0  0  0  0
   -7.2443   -1.1145   -3.8784 H   0  0  0  0  0  0  0  0  0  0  0  0
   -7.7277   -1.8896   -2.3885 H   0  0  0  0  0  0  0  0  0  0  0  0
   -5.9272    0.5749   -2.7620 H   0  0  0  0  0  0  0  0  0  0  0  0
   -3.7840    1.2150   -1.8248 H   0  0  0  0  0  0  0  0  0  0  0  0
    0.3710   -1.0744   -0.0486 H   0  0  0  0  0  0  0  0  0  0  0  0
    3.3300    0.3258    3.8884 H   0  0  0  0  0  0  0  0  0  0  0  0
    5.0246   -0.0815    4.0111 H   0  0  0  0  0  0  0  0  0  0  0  0
    3.9449   -1.1015    3.0901 H   0  0  0  0  0  0  0  0  0  0  0  0
    4.2621    2.6533    3.0153 H   0  0  0  0  0  0  0  0  0  0  0  0
    5.3516    2.6013    1.6505 H   0  0  0  0  0  0  0  0  0  0  0  0
    5.8469    1.9387    3.1899 H   0  0  0  0  0  0  0  0  0  0  0  0
    5.0902   -0.9797    1.0130 H   0  0  0  0  0  0  0  0  0  0  0  0
    6.3966   -0.0575    1.7169 H   0  0  0  0  0  0  0  0  0  0  0  0
    5.5591    0.5484    0.3077 H   0  0  0  0  0  0  0  0  0  0  0  0
    3.2014    3.1399    1.1540 H   0  0  0  0  0  0  0  0  0  0  0  0
   -0.7430   -2.5419   -0.1879 H   0  0  0  0  0  0  0  0  0  0  0  0
   -5.0838   -3.5252   -2.1702 H   0  0  0  0  0  0  0  0  0  0  0  0
  1  2  1  0  0  0  0
  1 25  1  0  0  0  0
  1 26  1  0  0  0  0
  1 27  1  0  0  0  0
  2 18  1  0  0  0  0
  2  3  2  0  0  0  0
  3  4  1  0  0  0  0
  3 28  1  0  0  0  0
  4 29  1  0  0  0  0
  4  5  2  0  0  0  0
  5  6  1  0  0  0  0
  5 17  1  0  0  0  0
  6  7  1  0  0  0  0
  6 16  2  0  0  0  0
  7 21  1  0  0  0  0
  7 19  2  0  0  0  0
  8 21  1  0  0  0  0
  8 14  1  0  0  0  0
  8 22  2  0  0  0  0
  9 23  1  0  0  0  0
  9 10  1  0  0  0  0
  9 11  1  0  0  0  0
  9 12  1  0  0  0  0
 10 31  1  0  0  0  0
 10 32  1  0  0  0  0
 10 33  1  0  0  0  0
 11 34  1  0  0  0  0
 11 35  1  0  0  0  0
 11 36  1  0  0  0  0
 12 37  1  0  0  0  0
 12 38  1  0  0  0  0
 12 39  1  0  0  0  0
 13 23  1  0  0  0  0
 13 40  1  0  0  0  0
 13 14  2  0  0  0  0
 14 15  1  0  0  0  0
 15 24  3  0  0  0  0
 16 20  1  0  0  0  0
 16 41  1  0  0  0  0
 17 20  1  0  0  0  0
 17 18  2  0  0  0  0
 18 42  1  0  0  0  0
 21 30  1  0  0  0  0
 22 23  1  0  0  0  0
M  END
>  <score>
0.42510378360748291

$$$$
PV-003475686659
 OpenBabel08202115463D

 49 51  0  0  0  0  0  0  0  0999 V2000
   -5.4860   -1.0949   -4.4960 C   0  0  0  0  0  0  0  0  0  0  0  0
   -5.3160   -2.3460   -3.6496 C   0  0  1  0  0  0  0  0  0  0  0  0
   -4.3962   -2.4285   -2.4719 C   0  0  1  0  0  0  0  0  0  0  0  0
   -3.6292   -1.1547   -2.1348 C   0  0  0  0  0  0  0  0  0  0  0  0
   -1.5794   -0.2425   -1.0746 C   0  0  0  0  0  0  0  0  0  0  0  0
   -1.7381    0.9869   -1.6951 C   0  0  0  0  0  0  0  0  0  0  0  0
   -0.8811    2.0285   -1.3939 C   0  0  0  0  0  0  0  0  0  0  0  0
    0.1337    1.8456   -0.4675 C   0  0  0  0  0  0  0  0  0  0  0  0
    0.2918    0.6197    0.1510 C   0  0  0  0  0  0  0  0  0  0  0  0
    2.2702    1.3113    1.4550 C   0  0  0  0  0  0  0  0  0  0  0  0
    3.4203    0.7794    2.2675 C   0  0  0  0  0  0  0  0  0  0  0  0
    4.6140    1.7247    2.3021 C   0  0  0  0  0  0  0  0  0  0  0  0
    5.7648    1.1153    3.1029 C   0  0  0  0  0  0  0  0  0  0  0  0
    6.9941    1.9963    3.3397 C   0  0  0  0  0  0  0  0  0  0  0  0
    6.0302   -0.3514    2.9383 C   0  0  0  0  0  0  0  0  0  0  0  0
    5.4217    0.1632    4.2052 C   0  0  0  0  0  0  0  0  0  0  0  0
   -0.5676   -0.4251   -0.1509 C   0  0  0  0  0  0  0  0  0  0  0  0
   -5.8809   -2.3904   -2.2646 C   0  0  1  0  0  0  0  0  0  0  0  0
   -6.6309   -1.2458   -1.6029 C   0  0  0  0  0  0  0  0  0  0  0  0
   -4.0921   -0.0835   -2.5246 O   0  0  0  0  0  0  0  0  0  0  0  0
    2.2679    2.4849    1.0929 O   0  0  0  0  0  0  0  0  0  0  0  0
   -2.4761   -1.2688   -1.4226 N   0  0  0  0  0  0  0  0  0  0  0  0
    1.3307    0.4314    1.0923 N   0  0  0  0  0  0  0  0  0  0  0  0
   -5.6788   -0.2566   -3.8596 H   0  0  0  0  0  0  0  0  0  0  0  0
   -6.3075   -1.2284   -5.1684 H   0  0  0  0  0  0  0  0  0  0  0  0
   -4.5912   -0.9190   -5.0557 H   0  0  0  0  0  0  0  0  0  0  0  0
   -5.4160   -3.2595   -4.1976 H   0  0  0  0  0  0  0  0  0  0  0  0
   -3.8980   -3.3595   -2.2986 H   0  0  0  0  0  0  0  0  0  0  0  0
   -2.2431   -2.1701   -1.1165 H   0  0  0  0  0  0  0  0  0  0  0  0
   -2.5020    1.1254   -2.3871 H   0  0  0  0  0  0  0  0  0  0  0  0
   -0.9976    2.9497   -1.8624 H   0  0  0  0  0  0  0  0  0  0  0  0
    0.7761    2.6306   -0.2380 H   0  0  0  0  0  0  0  0  0  0  0  0
    1.3662   -0.4452    1.5290 H   0  0  0  0  0  0  0  0  0  0  0  0
    3.7351   -0.1513    1.8436 H   0  0  0  0  0  0  0  0  0  0  0  0
    3.0835    0.6193    3.2704 H   0  0  0  0  0  0  0  0  0  0  0  0
    4.3185    2.6464    2.7583 H   0  0  0  0  0  0  0  0  0  0  0  0
    4.9431    1.9110    1.3012 H   0  0  0  0  0  0  0  0  0  0  0  0
    7.6041    2.0019    2.4606 H   0  0  0  0  0  0  0  0  0  0  0  0
    7.5578    1.6080    4.1621 H   0  0  0  0  0  0  0  0  0  0  0  0
    6.6797    2.9946    3.5618 H   0  0  0  0  0  0  0  0  0  0  0  0
    7.0360   -0.7164    2.9376 H   0  0  0  0  0  0  0  0  0  0  0  0
    5.4402   -0.9287    2.2574 H   0  0  0  0  0  0  0  0  0  0  0  0
    4.3970   -0.0473    4.4299 H   0  0  0  0  0  0  0  0  0  0  0  0
    5.9927    0.1650    5.1101 H   0  0  0  0  0  0  0  0  0  0  0  0
   -0.4511   -1.3463    0.3175 H   0  0  0  0  0  0  0  0  0  0  0  0
   -6.2892   -3.3468   -2.0128 H   0  0  0  0  0  0  0  0  0  0  0  0
   -6.6724   -1.4095   -0.5463 H   0  0  0  0  0  0  0  0  0  0  0  0
   -7.6251   -1.1970   -1.9954 H   0  0  0  0  0  0  0  0  0  0  0  0
   -6.1230   -0.3251   -1.8012 H   0  0  0  0  0  0  0  0  0  0  0  0
  1  2  1  0  0  0  0
  1 24  1  0  0  0  0
  1 25  1  0  0  0  0
  1 26  1  0  0  0  0
  2  3  1  0  0  0  0
  2 18  1  0  0  0  0
  2 27  1  6  0  0  0
  3  4  1  0  0  0  0
  3 18  1  0  0  0  0
  3 28  1  1  0  0  0
  4 22  1  0  0  0  0
  4 20  2  0  0  0  0
  5 22  1  0  0  0  0
  5 17  1  0  0  0  0
  5  6  2  0  0  0  0
  6  7  1  0  0  0  0
  6 30  1  0  0  0  0
  7 31  1  0  0  0  0
  7  8  2  0  0  0  0
  8  9  1  0  0  0  0
  8 32  1  0  0  0  0
  9 23  1  0  0  0  0
  9 17  2  0  0  0  0
 10 23  1  0  0  0  0
 10 11  1  0  0  0  0
 10 21  2  0  0  0  0
 11 12  1  0  0  0  0
 11 34  1  0  0  0  0
 11 35  1  0  0  0  0
 12 13  1  0  0  0  0
 12 36  1  0  0  0  0
 12 37  1  0  0  0  0
 13 14  1  0  0  0  0
 13 15  1  0  0  0  0
 13 16  1  0  0  0  0
 14 38  1  0  0  0  0
 14 39  1  0  0  0  0
 14 40  1  0  0  0  0
 15 16  1  0  0  0  0
 15 41  1  0  0  0  0
 15 42  1  0  0  0  0
 16 43  1  0  0  0  0
 16 44  1  0  0  0  0
 17 45  1  0  0  0  0
 18 19  1  0  0  0  0
 18 46  1  1  0  0  0
 19 47  1  0  0  0  0
 19 48  1  0  0  0  0
 19 49  1  0  0  0  0
 22 29  1  0  0  0  0
 23 33  1  0  0  0  0
M  END
>  <score>
0.42514783143997192

$$$$
Z3818199056
 OpenBabel08202115463D

 34 35  0  0  0  0  0  0  0  0999 V2000
    4.9011    2.2708    3.4270 C   0  0  0  0  0  0  0  0  0  0  0  0
    4.9597    1.9728    1.9352 C   0  0  0  0  0  0  0  0  0  0  0  0
    3.8652    1.0591    1.4249 C   0  0  0  0  0  0  0  0  0  0  0  0
    4.1255   -0.2825    1.2063 C   0  0  0  0  0  0  0  0  0  0  0  0
    2.0334   -0.6264    0.3521 C   0  0  0  0  0  0  0  0  0  0  0  0
    1.6881    0.6984    0.5395 C   0  0  0  0  0  0  0  0  0  0  0  0
    0.3545    1.2286    0.1776 C   0  0  0  0  0  0  0  0  0  0  0  0
   -1.8124    0.6029   -0.5882 C   0  0  0  0  0  0  0  0  0  0  0  0
   -2.5171   -0.6163   -1.1034 C   0  0  0  0  0  0  0  0  0  0  0  0
   -5.2812   -2.5940   -1.8680 C   0  0  0  0  0  0  0  0  0  0  0  0
   -5.9740   -2.1620   -3.1622 C   0  0  0  0  0  0  0  0  0  0  0  0
    2.6232    1.5586    1.0848 C   0  0  0  0  0  0  0  0  0  0  0  0
    6.1435    1.3437    1.6470 F   0  0  0  0  0  0  0  0  0  0  0  0
    4.9765    3.1287    1.2186 F   0  0  0  0  0  0  0  0  0  0  0  0
   -6.4346   -0.9129   -3.0766 F   0  0  0  0  0  0  0  0  0  0  0  0
   -7.0188   -2.9520   -3.4155 F   0  0  0  0  0  0  0  0  0  0  0  0
   -5.1664   -2.2239   -4.2096 F   0  0  0  0  0  0  0  0  0  0  0  0
    3.2301   -1.1267    0.6744 N   0  0  0  0  0  0  0  0  0  0  0  0
   -3.8417   -0.7362   -1.1887 N   0  0  0  0  0  0  0  0  0  0  0  0
   -3.9751   -1.9570   -1.6907 N   0  0  0  0  0  0  0  0  0  0  0  0
   -2.8210   -2.5732   -1.9093 N   0  0  0  0  0  0  0  0  0  0  0  0
   -1.8721   -1.7249   -1.5365 N   0  0  0  0  0  0  0  0  0  0  0  0
   -0.0066    2.3603    0.3732 O   0  0  0  0  0  0  0  0  0  0  0  0
   -0.4236    0.2862   -0.4056 O   0  0  0  0  0  0  0  0  0  0  0  0
    4.9023    1.3518    3.9751 H   0  0  0  0  0  0  0  0  0  0  0  0
    4.0068    2.8156    3.6467 H   0  0  0  0  0  0  0  0  0  0  0  0
    5.7529    2.8543    3.7076 H   0  0  0  0  0  0  0  0  0  0  0  0
    5.0612   -0.6538    1.4672 H   0  0  0  0  0  0  0  0  0  0  0  0
    1.3258   -1.2670   -0.0609 H   0  0  0  0  0  0  0  0  0  0  0  0
   -1.9103    1.4011   -1.2942 H   0  0  0  0  0  0  0  0  0  0  0  0
   -2.2406    0.8986    0.3467 H   0  0  0  0  0  0  0  0  0  0  0  0
   -5.9062   -2.3309   -1.0403 H   0  0  0  0  0  0  0  0  0  0  0  0
   -5.1451   -3.6551   -1.8897 H   0  0  0  0  0  0  0  0  0  0  0  0
    2.3958    2.5621    1.2360 H   0  0  0  0  0  0  0  0  0  0  0  0
  1  2  1  0  0  0  0
  1 25  1  0  0  0  0
  1 26  1  0  0  0  0
  1 27  1  0  0  0  0
  2 13  1  0  0  0  0
  2 14  1  0  0  0  0
  2  3  1  0  0  0  0
  3 12  1  0  0  0  0
  3  4  2  0  0  0  0
  4 18  1  0  0  0  0
  4 28  1  0  0  0  0
  5  6  1  0  0  0  0
  5 29  1  0  0  0  0
  5 18  2  0  0  0  0
  6  7  1  0  0  0  0
  6 12  2  0  0  0  0
  7 24  1  0  0  0  0
  7 23  2  0  0  0  0
  8 24  1  0  0  0  0
  8  9  1  0  0  0  0
  8 30  1  0  0  0  0
  8 31  1  0  0  0  0
  9 22  1  0  0  0  0
  9 19  2  0  0  0  0
 10 20  1  0  0  0  0
 10 11  1  0  0  0  0
 10 32  1  0  0  0  0
 10 33  1  0  0  0  0
 11 15  1  0  0  0  0
 11 16  1  0  0  0  0
 11 17  1  0  0  0  0
 12 34  1  0  0  0  0
 19 20  1  0  0  0  0
 20 21  1  0  0  0  0
 21 22  2  0  0  0  0
M  END
>  <score>
0.42521798610687256

$$$$
PV-002724227575
 OpenBabel08202115463D

 52 54  0  0  0  0  0  0  0  0999 V2000
   -6.8884   -1.7828   -1.9012 C   0  0  0  0  0  0  0  0  0  0  0  0
   -6.0779   -2.6866   -2.8158 C   0  0  0  0  0  0  0  0  0  0  0  0
   -6.9006   -3.8641   -3.3132 C   0  0  0  0  0  0  0  0  0  0  0  0
   -4.8478   -3.1714   -2.0659 C   0  0  0  0  0  0  0  0  0  0  0  0
   -3.9012   -2.0779   -1.7334 C   0  0  0  0  0  0  0  0  0  0  0  0
   -3.8495   -0.7560   -1.9732 C   0  0  0  0  0  0  0  0  0  0  0  0
   -2.6503   -0.3148   -1.3543 C   0  0  0  0  0  0  0  0  0  0  0  0
   -2.0989    1.0808   -1.3172 C   0  0  0  0  0  0  0  0  0  0  0  0
   -0.4418    1.1667    0.5044 C   0  0  0  0  0  0  0  0  0  0  0  0
    1.0081    1.1890    0.8075 C   0  0  0  0  0  0  0  0  0  0  0  0
    1.9094    0.5689   -0.0228 C   0  0  0  0  0  0  0  0  0  0  0  0
    3.2455    0.5802    0.2280 C   0  0  0  0  0  0  0  0  0  0  0  0
    3.7765    1.2344    1.3738 C   0  0  0  0  0  0  0  0  0  0  0  0
    2.8482    1.8468    2.2080 C   0  0  0  0  0  0  0  0  0  0  0  0
    1.4893    1.8392    1.9409 C   0  0  0  0  0  0  0  0  0  0  0  0
    3.3437    2.5518    3.4459 C   0  0  0  0  0  0  0  0  0  0  0  0
    4.8091    2.4774    3.7305 C   0  0  0  0  0  0  0  0  0  0  0  0
    5.6234    2.4331    2.4947 C   0  0  0  0  0  0  0  0  0  0  0  0
    5.2400    1.2423    1.6484 C   0  0  0  0  0  0  0  0  0  0  0  0
    5.6123   -0.0244    2.3804 C   0  0  0  0  0  0  0  0  0  0  0  0
    6.0044    1.3072    0.3099 C   0  0  0  0  0  0  0  0  0  0  0  0
   -0.7261    1.1314   -0.8149 N   0  0  0  0  0  0  0  0  0  0  0  0
   -2.0194   -1.3100   -0.7740 N   0  0  0  0  0  0  0  0  0  0  0  0
   -1.2807    1.1800    1.3952 O   0  0  0  0  0  0  0  0  0  0  0  0
    2.5818    3.1562    4.1825 O   0  0  0  0  0  0  0  0  0  0  0  0
   -2.8121   -2.4527   -1.0170 O   0  0  0  0  0  0  0  0  0  0  0  0
   -6.2450   -1.0486   -1.4630 H   0  0  0  0  0  0  0  0  0  0  0  0
   -7.3384   -2.3695   -1.1279 H   0  0  0  0  0  0  0  0  0  0  0  0
   -7.6523   -1.2939   -2.4690 H   0  0  0  0  0  0  0  0  0  0  0  0
   -5.7570   -2.1148   -3.6614 H   0  0  0  0  0  0  0  0  0  0  0  0
   -6.2567   -4.5742   -3.7885 H   0  0  0  0  0  0  0  0  0  0  0  0
   -7.6296   -3.5178   -4.0158 H   0  0  0  0  0  0  0  0  0  0  0  0
   -7.3945   -4.3286   -2.4856 H   0  0  0  0  0  0  0  0  0  0  0  0
   -4.3387   -3.8893   -2.6747 H   0  0  0  0  0  0  0  0  0  0  0  0
   -5.1650   -3.6359   -1.1557 H   0  0  0  0  0  0  0  0  0  0  0  0
   -4.5388   -0.1811   -2.4984 H   0  0  0  0  0  0  0  0  0  0  0  0
   -2.7186    1.6769   -0.6804 H   0  0  0  0  0  0  0  0  0  0  0  0
   -2.1155    1.4819   -2.3090 H   0  0  0  0  0  0  0  0  0  0  0  0
    0.0130    1.1400   -1.4584 H   0  0  0  0  0  0  0  0  0  0  0  0
    1.5592    0.0757   -0.8688 H   0  0  0  0  0  0  0  0  0  0  0  0
    3.8920    0.1011   -0.4309 H   0  0  0  0  0  0  0  0  0  0  0  0
    0.8291    2.3185    2.5860 H   0  0  0  0  0  0  0  0  0  0  0  0
    5.0928    3.3390    4.2980 H   0  0  0  0  0  0  0  0  0  0  0  0
    5.0035    1.5936    4.3016 H   0  0  0  0  0  0  0  0  0  0  0  0
    6.6579    2.3590    2.7577 H   0  0  0  0  0  0  0  0  0  0  0  0
    5.4606    3.3298    1.9341 H   0  0  0  0  0  0  0  0  0  0  0  0
    6.6742   -0.1528    2.3548 H   0  0  0  0  0  0  0  0  0  0  0  0
    5.1406   -0.8607    1.9081 H   0  0  0  0  0  0  0  0  0  0  0  0
    5.2857    0.0425    3.3972 H   0  0  0  0  0  0  0  0  0  0  0  0
    5.9393    0.3607   -0.1848 H   0  0  0  0  0  0  0  0  0  0  0  0
    7.0315    1.5416    0.4971 H   0  0  0  0  0  0  0  0  0  0  0  0
    5.5726    2.0643   -0.3108 H   0  0  0  0  0  0  0  0  0  0  0  0
  1  2  1  0  0  0  0
  1 27  1  0  0  0  0
  1 28  1  0  0  0  0
  1 29  1  0  0  0  0
  2  3  1  0  0  0  0
  2  4  1  0  0  0  0
  2 30  1  0  0  0  0
  3 31  1  0  0  0  0
  3 32  1  0  0  0  0
  3 33  1  0  0  0  0
  4  5  1  0  0  0  0
  4 34  1  0  0  0  0
  4 35  1  0  0  0  0
  5 26  1  0  0  0  0
  5  6  2  0  0  0  0
  6  7  1  0  0  0  0
  6 36  1  0  0  0  0
  7  8  1  0  0  0  0
  7 23  2  0  0  0  0
  8 22  1  0  0  0  0
  8 37  1  0  0  0  0
  8 38  1  0  0  0  0
  9 22  1  0  0  0  0
  9 10  1  0  0  0  0
  9 24  2  0  0  0  0
 10 15  1  0  0  0  0
 10 11  2  0  0  0  0
 11 12  1  0  0  0  0
 11 40  1  0  0  0  0
 12 41  1  0  0  0  0
 12 13  2  0  0  0  0
 13 14  1  0  0  0  0
 13 19  1  0  0  0  0
 14 16  1  0  0  0  0
 14 15  2  0  0  0  0
 15 42  1  0  0  0  0
 16 17  1  0  0  0  0
 16 25  2  0  0  0  0
 17 18  1  0  0  0  0
 17 43  1  0  0  0  0
 17 44  1  0  0  0  0
 18 19  1  0  0  0  0
 18 45  1  0  0  0  0
 18 46  1  0  0  0  0
 19 20  1  0  0  0  0
 19 21  1  0  0  0  0
 20 47  1  0  0  0  0
 20 48  1  0  0  0  0
 20 49  1  0  0  0  0
 21 50  1  0  0  0  0
 21 51  1  0  0  0  0
 21 52  1  0  0  0  0
 22 39  1  0  0  0  0
 23 26  1  0  0  0  0
M  END
>  <score>
0.42534470558166504

$$$$
PV-003613607514
 OpenBabel08202115463D

 50 50  0  0  0  0  0  0  0  0999 V2000
    6.1045   -0.2370    2.6434 C   0  0  0  0  0  0  0  0  0  0  0  0
    6.0782    1.1460    3.2734 C   0  0  1  0  0  0  0  0  0  0  0  0
    4.6433    1.6658    3.4128 C   0  0  0  0  0  0  0  0  0  0  0  0
    3.8852    1.6601    2.1124 C   0  0  0  0  0  0  0  0  0  0  0  0
    1.8848    2.2666    0.8431 C   0  0  0  0  0  0  0  0  0  0  0  0
    0.9125    1.1005    0.7007 C   0  0  1  0  0  0  0  0  0  0  0  0
   -0.0192    0.9577    1.8932 C   0  0  0  0  0  0  0  0  0  0  0  0
    0.1683    1.1745   -0.6226 C   0  0  0  0  0  0  0  0  0  0  0  0
   -1.8332    0.0299   -1.4549 C   0  0  0  0  0  0  0  0  0  0  0  0
   -2.5338   -1.2938   -1.6360 C   0  0  0  0  0  0  0  0  0  0  0  0
   -4.5426   -2.2549   -2.7285 C   0  0  0  0  0  0  0  0  0  0  0  0
   -6.5657   -2.8451   -4.0431 C   0  0  0  0  0  0  0  0  0  0  0  0
   -7.1620   -2.4959   -5.3740 C   0  0  0  0  0  0  0  0  0  0  0  0
   -8.0176   -2.4980   -4.1461 C   0  0  0  0  0  0  0  0  0  0  0  0
    6.8049    1.1534    4.5991 C   0  0  0  0  0  0  0  0  0  0  0  0
    4.3456    1.1819    1.0917 O   0  0  0  0  0  0  0  0  0  0  0  0
   -2.3566    1.0837   -1.8143 O   0  0  0  0  0  0  0  0  0  0  0  0
   -4.2739   -3.4065   -2.4277 O   0  0  0  0  0  0  0  0  0  0  0  0
    2.6628    2.1979    2.0711 N   0  0  0  0  0  0  0  0  0  0  0  0
   -0.6274   -0.0255   -0.8872 N   0  0  0  0  0  0  0  0  0  0  0  0
   -3.8047   -1.1663   -2.3488 N   0  0  0  0  0  0  0  0  0  0  0  0
   -5.5954   -1.9068   -3.4699 N   0  0  0  0  0  0  0  0  0  0  0  0
    6.9339    2.4583    4.9739 F   0  0  0  0  0  0  0  0  0  0  0  0
    8.0236    0.6486    4.4274 F   0  0  0  0  0  0  0  0  0  0  0  0
    5.7353   -0.1799    1.6407 H   0  0  0  0  0  0  0  0  0  0  0  0
    5.4875   -0.9000    3.2132 H   0  0  0  0  0  0  0  0  0  0  0  0
    7.1093   -0.6048    2.6328 H   0  0  0  0  0  0  0  0  0  0  0  0
    6.5984    1.8112    2.6163 H   0  0  0  0  0  0  0  0  0  0  0  0
    4.6791    2.6695    3.7818 H   0  0  0  0  0  0  0  0  0  0  0  0
    4.1232    1.0461    4.1130 H   0  0  0  0  0  0  0  0  0  0  0  0
    2.2766    2.5585    2.8964 H   0  0  0  0  0  0  0  0  0  0  0  0
    2.5568    2.2563    0.0105 H   0  0  0  0  0  0  0  0  0  0  0  0
    1.3275    3.1800    0.8410 H   0  0  0  0  0  0  0  0  0  0  0  0
    1.5061    0.2109    0.6683 H   0  0  0  0  0  0  0  0  0  0  0  0
   -0.6519    1.8182    1.9572 H   0  0  0  0  0  0  0  0  0  0  0  0
    0.5593    0.8732    2.7893 H   0  0  0  0  0  0  0  0  0  0  0  0
   -0.6208    0.0812    1.7724 H   0  0  0  0  0  0  0  0  0  0  0  0
    0.8819    1.2935   -1.4110 H   0  0  0  0  0  0  0  0  0  0  0  0
   -0.4852    2.0215   -0.6016 H   0  0  0  0  0  0  0  0  0  0  0  0
   -0.2614   -0.9000   -0.6386 H   0  0  0  0  0  0  0  0  0  0  0  0
   -2.7233   -1.7157   -0.6711 H   0  0  0  0  0  0  0  0  0  0  0  0
   -1.8936   -1.9467   -2.1917 H   0  0  0  0  0  0  0  0  0  0  0  0
   -4.1395   -0.2702   -2.5619 H   0  0  0  0  0  0  0  0  0  0  0  0
   -5.7306   -0.9520   -3.6448 H   0  0  0  0  0  0  0  0  0  0  0  0
   -6.3531   -3.8835   -3.8967 H   0  0  0  0  0  0  0  0  0  0  0  0
   -7.2916   -3.2542   -6.1178 H   0  0  0  0  0  0  0  0  0  0  0  0
   -6.9083   -1.5706   -5.8477 H   0  0  0  0  0  0  0  0  0  0  0  0
   -8.3762   -1.5740   -3.7429 H   0  0  0  0  0  0  0  0  0  0  0  0
   -8.7595   -3.2576   -4.0129 H   0  0  0  0  0  0  0  0  0  0  0  0
    6.2377    0.5958    5.3149 H   0  0  0  0  0  0  0  0  0  0  0  0
  1  2  1  0  0  0  0
  1 25  1  0  0  0  0
  1 26  1  0  0  0  0
  1 27  1  0  0  0  0
  2  3  1  0  0  0  0
  2 15  1  0  0  0  0
  2 28  1  6  0  0  0
  3  4  1  0  0  0  0
  3 29  1  0  0  0  0
  3 30  1  0  0  0  0
  4 19  1  0  0  0  0
  4 16  2  0  0  0  0
  5 19  1  0  0  0  0
  5  6  1  0  0  0  0
  5 32  1  0  0  0  0
  5 33  1  0  0  0  0
  6  7  1  0  0  0  0
  6  8  1  0  0  0  0
  6 34  1  6  0  0  0
  7 35  1  0  0  0  0
  7 36  1  0  0  0  0
  7 37  1  0  0  0  0
  8 20  1  0  0  0  0
  8 38  1  0  0  0  0
  8 39  1  0  0  0  0
  9 20  1  0  0  0  0
  9 10  1  0  0  0  0
  9 17  2  0  0  0  0
 10 21  1  0  0  0  0
 10 41  1  0  0  0  0
 10 42  1  0  0  0  0
 11 21  1  0  0  0  0
 11 22  1  0  0  0  0
 11 18  2  0  0  0  0
 12 22  1  0  0  0  0
 12 13  1  0  0  0  0
 12 14  1  0  0  0  0
 12 45  1  0  0  0  0
 13 14  1  0  0  0  0
 13 46  1  0  0  0  0
 13 47  1  0  0  0  0
 14 48  1  0  0  0  0
 14 49  1  0  0  0  0
 15 23  1  0  0  0  0
 15 24  1  0  0  0  0
 15 50  1  0  0  0  0
 19 31  1  0  0  0  0
 20 40  1  0  0  0  0
 21 43  1  0  0  0  0
 22 44  1  0  0  0  0
M  END
>  <score>
0.42539775371551514

$$$$
Z2699109208
 OpenBabel08202115463D

 56 57  0  0  0  0  0  0  0  0999 V2000
   -7.3743   -0.9999   -3.9083 C   0  0  0  0  0  0  0  0  0  0  0  0
   -6.3582   -2.0366   -3.5268 C   0  0  0  0  0  0  0  0  0  0  0  0
   -4.2884   -2.4443   -2.6467 C   0  0  0  0  0  0  0  0  0  0  0  0
   -3.0358   -1.8531   -2.0682 C   0  0  0  0  0  0  0  0  0  0  0  0
   -3.1852   -1.4516   -0.6187 C   0  0  0  0  0  0  0  0  0  0  0  0
   -1.5203    0.3269   -0.1594 C   0  0  0  0  0  0  0  0  0  0  0  0
    0.2544    1.9035    0.4279 C   0  0  1  0  0  0  0  0  0  0  0  0
   -0.1553    2.6407    1.6938 C   0  0  0  0  0  0  0  0  0  0  0  0
    0.7999    2.0868    2.7358 C   0  0  0  0  0  0  0  0  0  0  0  0
    3.2598    1.6868    2.5301 C   0  0  0  0  0  0  0  0  0  0  0  0
    5.5466    1.0847    2.0146 C   0  0  0  0  0  0  0  0  0  0  0  0
    6.4342    0.8296    0.8074 C   0  0  0  0  0  0  0  0  0  0  0  0
    5.4757   -0.1075    2.9548 C   0  0  0  0  0  0  0  0  0  0  0  0
    5.9852    2.3322    2.7546 C   0  0  0  0  0  0  0  0  0  0  0  0
    1.7799    1.8258    0.5178 C   0  0  2  0  0  0  0  0  0  0  0  0
    2.2976    0.5370   -0.0998 C   0  0  0  0  0  0  0  0  0  0  0  0
   -4.4446   -3.8114   -2.7947 C   0  0  0  0  0  0  0  0  0  0  0  0
   -5.6206   -4.2904   -3.3381 C   0  0  0  0  0  0  0  0  0  0  0  0
   -6.5959   -3.3851   -3.7134 C   0  0  0  0  0  0  0  0  0  0  0  0
   -5.2271   -1.5555   -3.0021 N   0  0  0  0  0  0  0  0  0  0  0  0
   -1.9308   -0.9703   -0.0372 N   0  0  0  0  0  0  0  0  0  0  0  0
   -0.3293    0.5708    0.3948 N   0  0  0  0  0  0  0  0  0  0  0  0
    2.0314    1.8549    1.9672 N   0  0  0  0  0  0  0  0  0  0  0  0
   -2.1889    1.1863   -0.7279 O   0  0  0  0  0  0  0  0  0  0  0  0
    3.4849    1.7380    3.7129 O   0  0  0  0  0  0  0  0  0  0  0  0
    4.1844    1.4549    1.5682 O   0  0  0  0  0  0  0  0  0  0  0  0
   -7.8861   -1.3107   -4.7951 H   0  0  0  0  0  0  0  0  0  0  0  0
   -6.8815   -0.0675   -4.0894 H   0  0  0  0  0  0  0  0  0  0  0  0
   -8.0797   -0.8823   -3.1124 H   0  0  0  0  0  0  0  0  0  0  0  0
   -2.7747   -0.9852   -2.6369 H   0  0  0  0  0  0  0  0  0  0  0  0
   -2.2518   -2.5776   -2.1419 H   0  0  0  0  0  0  0  0  0  0  0  0
   -3.5183   -2.3013   -0.0601 H   0  0  0  0  0  0  0  0  0  0  0  0
   -3.9152   -0.6721   -0.5524 H   0  0  0  0  0  0  0  0  0  0  0  0
   -1.3661   -1.6006    0.4569 H   0  0  0  0  0  0  0  0  0  0  0  0
    0.1685   -0.1736    0.7928 H   0  0  0  0  0  0  0  0  0  0  0  0
   -0.0473    2.4473   -0.4427 H   0  0  0  0  0  0  0  0  0  0  0  0
   -0.0304    3.6974    1.5808 H   0  0  0  0  0  0  0  0  0  0  0  0
   -1.1716    2.4267    1.9514 H   0  0  0  0  0  0  0  0  0  0  0  0
    0.9647    2.7949    3.5210 H   0  0  0  0  0  0  0  0  0  0  0  0
    0.4282    1.1733    3.1508 H   0  0  0  0  0  0  0  0  0  0  0  0
    6.1364   -0.0813    0.3313 H   0  0  0  0  0  0  0  0  0  0  0  0
    7.4529    0.7494    1.1246 H   0  0  0  0  0  0  0  0  0  0  0  0
    6.3380    1.6409    0.1164 H   0  0  0  0  0  0  0  0  0  0  0  0
    4.7939    0.1059    3.7514 H   0  0  0  0  0  0  0  0  0  0  0  0
    6.4473   -0.3006    3.3594 H   0  0  0  0  0  0  0  0  0  0  0  0
    5.1361   -0.9670    2.4156 H   0  0  0  0  0  0  0  0  0  0  0  0
    6.0595    3.0006    1.9223 H   0  0  0  0  0  0  0  0  0  0  0  0
    6.9258    2.1975    3.2465 H   0  0  0  0  0  0  0  0  0  0  0  0
    5.2536    2.6557    3.4652 H   0  0  0  0  0  0  0  0  0  0  0  0
    2.2361    2.6630    0.0322 H   0  0  0  0  0  0  0  0  0  0  0  0
    2.0615    0.5210   -1.1433 H   0  0  0  0  0  0  0  0  0  0  0  0
    1.8369   -0.2996    0.3827 H   0  0  0  0  0  0  0  0  0  0  0  0
    3.3587    0.4824    0.0265 H   0  0  0  0  0  0  0  0  0  0  0  0
   -3.6909   -4.4656   -2.5023 H   0  0  0  0  0  0  0  0  0  0  0  0
   -5.7696   -5.3121   -3.4625 H   0  0  0  0  0  0  0  0  0  0  0  0
   -7.4915   -3.7127   -4.1283 H   0  0  0  0  0  0  0  0  0  0  0  0
  1  2  1  0  0  0  0
  1 27  1  0  0  0  0
  1 28  1  0  0  0  0
  1 29  1  0  0  0  0
  2 19  1  0  0  0  0
  2 20  2  0  0  0  0
  3 20  1  0  0  0  0
  3  4  1  0  0  0  0
  3 17  2  0  0  0  0
  4  5  1  0  0  0  0
  4 30  1  0  0  0  0
  4 31  1  0  0  0  0
  5 21  1  0  0  0  0
  5 32  1  0  0  0  0
  5 33  1  0  0  0  0
  6 21  1  0  0  0  0
  6 22  1  0  0  0  0
  6 24  2  0  0  0  0
  7 22  1  0  0  0  0
  7  8  1  0  0  0  0
  7 15  1  0  0  0  0
  7 36  1  6  0  0  0
  8  9  1  0  0  0  0
  8 37  1  0  0  0  0
  8 38  1  0  0  0  0
  9 23  1  0  0  0  0
  9 39  1  0  0  0  0
  9 40  1  0  0  0  0
 10 23  1  0  0  0  0
 10 26  1  0  0  0  0
 10 25  2  0  0  0  0
 11 26  1  0  0  0  0
 11 12  1  0  0  0  0
 11 13  1  0  0  0  0
 11 14  1  0  0  0  0
 12 41  1  0  0  0  0
 12 42  1  0  0  0  0
 12 43  1  0  0  0  0
 13 44  1  0  0  0  0
 13 45  1  0  0  0  0
 13 46  1  0  0  0  0
 14 47  1  0  0  0  0
 14 48  1  0  0  0  0
 14 49  1  0  0  0  0
 15 23  1  0  0  0  0
 15 16  1  0  0  0  0
 15 50  1  6  0  0  0
 16 51  1  0  0  0  0
 16 52  1  0  0  0  0
 16 53  1  0  0  0  0
 17 18  1  0  0  0  0
 17 54  1  0  0  0  0
 18 55  1  0  0  0  0
 18 19  2  0  0  0  0
 19 56  1  0  0  0  0
 21 34  1  0  0  0  0
 22 35  1  0  0  0  0
M  END
>  <score>
0.42572569847106934

$$$$
PV-003725669542
 OpenBabel08202115463D

 53 55  0  0  0  0  0  0  0  0999 V2000
    5.4121    0.5323    4.9137 C   0  0  0  0  0  0  0  0  0  0  0  0
    4.3315    0.6114    3.8477 C   0  0  1  0  0  0  0  0  0  0  0  0
    4.3387    1.9877    3.1759 C   0  0  0  0  0  0  0  0  0  0  0  0
    5.1556    1.7574    1.9315 C   0  0  0  0  0  0  0  0  0  0  0  0
    4.7926    0.3144    1.5521 C   0  0  2  0  0  0  0  0  0  0  0  0
    3.5303    0.2802    0.7278 C   0  0  0  0  0  0  0  0  0  0  0  0
    1.1135    0.0864    0.7086 C   0  0  0  0  0  0  0  0  0  0  0  0
    0.4179    1.4468    0.7767 C   0  0  1  0  0  0  0  0  0  0  0  0
    1.1504    2.5789    0.0279 C   0  0  0  0  0  0  0  0  0  0  0  0
    0.2212    2.3434   -1.1747 C   0  0  0  0  0  0  0  0  0  0  0  0
   -0.7674    1.6224   -0.2316 C   0  0  1  0  0  0  0  0  0  0  0  0
   -2.6403    0.2200   -1.0768 C   0  0  0  0  0  0  0  0  0  0  0  0
   -3.0291   -1.1088   -1.6761 C   0  0  0  0  0  0  0  0  0  0  0  0
   -4.5290   -1.2571   -1.8728 C   0  0  0  0  0  0  0  0  0  0  0  0
   -4.9326   -2.6132   -2.4261 C   0  0  0  0  0  0  0  0  0  0  0  0
   -6.4123   -2.7182   -2.8576 C   0  0  0  0  0  0  0  0  0  0  0  0
   -5.9816   -3.3707   -4.2071 C   0  0  0  0  0  0  0  0  0  0  0  0
   -4.5519   -2.8450   -3.9186 C   0  0  0  0  0  0  0  0  0  0  0  0
    3.5073    0.3749   -0.4849 O   0  0  0  0  0  0  0  0  0  0  0  0
   -3.4231    1.1281   -0.8705 O   0  0  0  0  0  0  0  0  0  0  0  0
    4.5996   -0.3284    2.7828 O   0  0  0  0  0  0  0  0  0  0  0  0
    2.3859    0.1353    1.4131 N   0  0  0  0  0  0  0  0  0  0  0  0
   -1.3076    0.3707   -0.7589 N   0  0  0  0  0  0  0  0  0  0  0  0
   -6.0914   -4.7167   -4.2437 F   0  0  0  0  0  0  0  0  0  0  0  0
   -6.5621   -2.8454   -5.2926 F   0  0  0  0  0  0  0  0  0  0  0  0
    5.2445    1.2911    5.6492 H   0  0  0  0  0  0  0  0  0  0  0  0
    6.3705    0.6798    4.4613 H   0  0  0  0  0  0  0  0  0  0  0  0
    5.3821   -0.4298    5.3810 H   0  0  0  0  0  0  0  0  0  0  0  0
    3.3776    0.4147    4.2908 H   0  0  0  0  0  0  0  0  0  0  0  0
    3.3453    2.3002    2.9304 H   0  0  0  0  0  0  0  0  0  0  0  0
    4.7981    2.7201    3.8064 H   0  0  0  0  0  0  0  0  0  0  0  0
    6.2020    1.8515    2.1341 H   0  0  0  0  0  0  0  0  0  0  0  0
    4.8789    2.4413    1.1565 H   0  0  0  0  0  0  0  0  0  0  0  0
    5.5890   -0.1454    1.0051 H   0  0  0  0  0  0  0  0  0  0  0  0
    2.4070    0.0622    2.3901 H   0  0  0  0  0  0  0  0  0  0  0  0
    0.4872   -0.6534    1.1617 H   0  0  0  0  0  0  0  0  0  0  0  0
    1.2866   -0.1707   -0.3155 H   0  0  0  0  0  0  0  0  0  0  0  0
    0.1732    1.6723    1.7937 H   0  0  0  0  0  0  0  0  0  0  0  0
    2.1836    2.3816   -0.1679 H   0  0  0  0  0  0  0  0  0  0  0  0
    1.0504    3.5435    0.4802 H   0  0  0  0  0  0  0  0  0  0  0  0
   -0.1640    3.2388   -1.6161 H   0  0  0  0  0  0  0  0  0  0  0  0
    0.6373    1.7194   -1.9378 H   0  0  0  0  0  0  0  0  0  0  0  0
   -1.5687    2.2348    0.1257 H   0  0  0  0  0  0  0  0  0  0  0  0
   -0.7011   -0.3877   -0.8910 H   0  0  0  0  0  0  0  0  0  0  0  0
   -2.6924   -1.8879   -1.0246 H   0  0  0  0  0  0  0  0  0  0  0  0
   -2.5496   -1.2066   -2.6276 H   0  0  0  0  0  0  0  0  0  0  0  0
   -4.8582   -0.5009   -2.5544 H   0  0  0  0  0  0  0  0  0  0  0  0
   -5.0104   -1.1197   -0.9271 H   0  0  0  0  0  0  0  0  0  0  0  0
   -4.6071   -3.3829   -1.7579 H   0  0  0  0  0  0  0  0  0  0  0  0
   -6.9019   -1.7732   -2.9676 H   0  0  0  0  0  0  0  0  0  0  0  0
   -7.0034   -3.3564   -2.2345 H   0  0  0  0  0  0  0  0  0  0  0  0
   -4.3013   -1.9499   -4.4486 H   0  0  0  0  0  0  0  0  0  0  0  0
   -3.7819   -3.5736   -4.0639 H   0  0  0  0  0  0  0  0  0  0  0  0
  1  2  1  0  0  0  0
  1 26  1  0  0  0  0
  1 27  1  0  0  0  0
  1 28  1  0  0  0  0
  2  3  1  0  0  0  0
  2 21  1  0  0  0  0
  2 29  1  1  0  0  0
  3  4  1  0  0  0  0
  3 30  1  0  0  0  0
  3 31  1  0  0  0  0
  4  5  1  0  0  0  0
  4 32  1  0  0  0  0
  4 33  1  0  0  0  0
  5  6  1  0  0  0  0
  5 21  1  0  0  0  0
  5 34  1  6  0  0  0
  6 22  1  0  0  0  0
  6 19  2  0  0  0  0
  7 22  1  0  0  0  0
  7  8  1  0  0  0  0
  7 36  1  0  0  0  0
  7 37  1  0  0  0  0
  8  9  1  0  0  0  0
  8 11  1  0  0  0  0
  8 38  1  1  0  0  0
  9 10  1  0  0  0  0
  9 39  1  0  0  0  0
  9 40  1  0  0  0  0
 10 11  1  0  0  0  0
 10 41  1  0  0  0  0
 10 42  1  0  0  0  0
 11 23  1  0  0  0  0
 11 43  1  1  0  0  0
 12 23  1  0  0  0  0
 12 13  1  0  0  0  0
 12 20  2  0  0  0  0
 13 14  1  0  0  0  0
 13 45  1  0  0  0  0
 13 46  1  0  0  0  0
 14 15  1  0  0  0  0
 14 47  1  0  0  0  0
 14 48  1  0  0  0  0
 15 16  1  0  0  0  0
 15 18  1  0  0  0  0
 15 49  1  0  0  0  0
 16 17  1  0  0  0  0
 16 50  1  0  0  0  0
 16 51  1  0  0  0  0
 17 24  1  0  0  0  0
 17 25  1  0  0  0  0
 17 18  1  0  0  0  0
 18 52  1  0  0  0  0
 18 53  1  0  0  0  0
 22 35  1  0  0  0  0
 23 44  1  0  0  0  0
M  END
>  <score>
0.42573678493499756

$$$$
PV-003970911438
 OpenBabel08202115463D

 58 59  0  0  0  0  0  0  0  0999 V2000
    5.3874   -0.6715    2.5876 C   0  0  0  0  0  0  0  0  0  0  0  0
    5.7793    0.7971    2.5917 C   0  0  0  0  0  0  0  0  0  0  0  0
    7.1485    0.9952    1.9619 C   0  0  0  0  0  0  0  0  0  0  0  0
    5.6870    1.3781    3.9882 C   0  0  0  0  0  0  0  0  0  0  0  0
    3.5088    1.3033    2.2282 C   0  0  0  0  0  0  0  0  0  0  0  0
    1.2452    2.1348    1.6763 C   0  0  0  0  0  0  0  0  0  0  0  0
    0.3814    1.1654    0.8730 C   0  0  1  0  0  0  0  0  0  0  0  0
   -1.1276    1.5022    0.8705 C   0  0  0  0  0  0  0  0  0  0  0  0
   -1.1532    1.2373   -0.6562 C   0  0  1  0  0  0  0  0  0  0  0  0
   -3.0406   -0.3586   -0.7729 C   0  0  0  0  0  0  0  0  0  0  0  0
   -3.5625   -1.7370   -1.0864 C   0  0  0  0  0  0  0  0  0  0  0  0
   -5.6319   -3.0598   -1.4397 C   0  0  0  0  0  0  0  0  0  0  0  0
   -6.2238   -2.8583   -2.8560 C   0  0  0  0  0  0  0  0  0  0  0  0
   -7.1387   -1.7159   -2.9219 C   0  0  0  0  0  0  0  0  0  0  0  0
   -6.5344   -3.9850   -3.7906 C   0  0  0  0  0  0  0  0  0  0  0  0
   -5.3771   -3.0792   -4.0739 C   0  0  0  0  0  0  0  0  0  0  0  0
    0.3873    1.4143   -0.6507 C   0  0  0  0  0  0  0  0  0  0  0  0
    1.1459    0.3591   -1.4587 C   0  0  0  0  0  0  0  0  0  0  0  0
    0.8630    2.8104   -1.0596 C   0  0  0  0  0  0  0  0  0  0  0  0
    4.7610    1.3823    1.7472 O   0  0  0  0  0  0  0  0  0  0  0  0
    3.1710    0.6545    3.1932 O   0  0  0  0  0  0  0  0  0  0  0  0
   -2.8042   -2.6457   -1.4225 O   0  0  0  0  0  0  0  0  0  0  0  0
    2.6854    2.0459    1.4868 N   0  0  0  0  0  0  0  0  0  0  0  0
   -1.6180   -0.1202   -1.0402 N   0  0  0  0  0  0  0  0  0  0  0  0
   -4.8906   -1.8972   -0.9740 N   0  0  0  0  0  0  0  0  0  0  0  0
   -7.8583   -0.8411   -3.0207 N   0  0  0  0  0  0  0  0  0  0  0  0
    6.1722   -1.2494    2.1461 H   0  0  0  0  0  0  0  0  0  0  0  0
    4.4888   -0.7989    2.0209 H   0  0  0  0  0  0  0  0  0  0  0  0
    5.2252   -0.9998    3.5930 H   0  0  0  0  0  0  0  0  0  0  0  0
    7.1327    0.6383    0.9533 H   0  0  0  0  0  0  0  0  0  0  0  0
    7.8802    0.4506    2.5212 H   0  0  0  0  0  0  0  0  0  0  0  0
    7.3963    2.0361    1.9678 H   0  0  0  0  0  0  0  0  0  0  0  0
    4.6728    1.3351    4.3266 H   0  0  0  0  0  0  0  0  0  0  0  0
    6.0147    2.3965    3.9730 H   0  0  0  0  0  0  0  0  0  0  0  0
    6.3081    0.8128    4.6512 H   0  0  0  0  0  0  0  0  0  0  0  0
    3.0799    2.5713    0.7597 H   0  0  0  0  0  0  0  0  0  0  0  0
    0.9455    3.1279    1.4142 H   0  0  0  0  0  0  0  0  0  0  0  0
    1.0446    1.9631    2.7132 H   0  0  0  0  0  0  0  0  0  0  0  0
    0.6113    0.1605    1.1595 H   0  0  0  0  0  0  0  0  0  0  0  0
   -1.3548    2.5106    1.1469 H   0  0  0  0  0  0  0  0  0  0  0  0
   -1.7303    0.8301    1.4448 H   0  0  0  0  0  0  0  0  0  0  0  0
   -1.6836    1.9710   -1.2265 H   0  0  0  0  0  0  0  0  0  0  0  0
   -1.0949   -0.7790   -0.5374 H   0  0  0  0  0  0  0  0  0  0  0  0
   -3.6023    0.3416   -1.3552 H   0  0  0  0  0  0  0  0  0  0  0  0
   -3.2107   -0.1757    0.2675 H   0  0  0  0  0  0  0  0  0  0  0  0
   -5.3992   -1.1771   -0.5462 H   0  0  0  0  0  0  0  0  0  0  0  0
   -6.4334   -3.2512   -0.7572 H   0  0  0  0  0  0  0  0  0  0  0  0
   -4.9717   -3.9016   -1.4606 H   0  0  0  0  0  0  0  0  0  0  0  0
   -7.4087   -3.9433   -4.4060 H   0  0  0  0  0  0  0  0  0  0  0  0
   -6.3599   -4.9957   -3.4859 H   0  0  0  0  0  0  0  0  0  0  0  0
   -4.3758   -3.4422   -3.9708 H   0  0  0  0  0  0  0  0  0  0  0  0
   -5.4247   -2.3898   -4.8908 H   0  0  0  0  0  0  0  0  0  0  0  0
    0.7001    0.2618   -2.4265 H   0  0  0  0  0  0  0  0  0  0  0  0
    1.1003   -0.5807   -0.9492 H   0  0  0  0  0  0  0  0  0  0  0  0
    2.1676    0.6584   -1.5653 H   0  0  0  0  0  0  0  0  0  0  0  0
    0.2830    3.5495   -0.5476 H   0  0  0  0  0  0  0  0  0  0  0  0
    0.7435    2.9324   -2.1159 H   0  0  0  0  0  0  0  0  0  0  0  0
    1.8950    2.9252   -0.8012 H   0  0  0  0  0  0  0  0  0  0  0  0
  1  2  1  0  0  0  0
  1 27  1  0  0  0  0
  1 28  1  0  0  0  0
  1 29  1  0  0  0  0
  2  3  1  0  0  0  0
  2  4  1  0  0  0  0
  2 20  1  0  0  0  0
  3 30  1  0  0  0  0
  3 31  1  0  0  0  0
  3 32  1  0  0  0  0
  4 33  1  0  0  0  0
  4 34  1  0  0  0  0
  4 35  1  0  0  0  0
  5 20  1  0  0  0  0
  5 23  1  0  0  0  0
  5 21  2  0  0  0  0
  6 23  1  0  0  0  0
  6  7  1  0  0  0  0
  6 37  1  0  0  0  0
  6 38  1  0  0  0  0
  7  8  1  0  0  0  0
  7 17  1  0  0  0  0
  7 39  1  1  0  0  0
  8  9  1  0  0  0  0
  8 40  1  0  0  0  0
  8 41  1  0  0  0  0
  9 24  1  0  0  0  0
  9 17  1  0  0  0  0
  9 42  1  6  0  0  0
 10 24  1  0  0  0  0
 10 11  1  0  0  0  0
 10 44  1  0  0  0  0
 10 45  1  0  0  0  0
 11 25  1  0  0  0  0
 11 22  2  0  0  0  0
 12 25  1  0  0  0  0
 12 13  1  0  0  0  0
 12 47  1  0  0  0  0
 12 48  1  0  0  0  0
 13 14  1  0  0  0  0
 13 15  1  0  0  0  0
 13 16  1  0  0  0  0
 14 26  3  0  0  0  0
 15 16  1  0  0  0  0
 15 49  1  0  0  0  0
 15 50  1  0  0  0  0
 16 51  1  0  0  0  0
 16 52  1  0  0  0  0
 17 18  1  0  0  0  0
 17 19  1  0  0  0  0
 18 53  1  0  0  0  0
 18 54  1  0  0  0  0
 18 55  1  0  0  0  0
 19 56  1  0  0  0  0
 19 57  1  0  0  0  0
 19 58  1  0  0  0  0
 23 36  1  0  0  0  0
 24 43  1  0  0  0  0
 25 46  1  0  0  0  0
M  END
>  <score>
0.42595672607421875

$$$$
PV-003136663787
 OpenBabel08202115463D

 53 54  0  0  0  0  0  0  0  0999 V2000
   -5.7563   -4.3895   -3.1963 C   0  0  0  0  0  0  0  0  0  0  0  0
   -4.6937   -2.3012   -3.3983 C   0  0  1  0  0  0  0  0  0  0  0  0
   -5.8212   -1.7955   -4.2851 C   0  0  0  0  0  0  0  0  0  0  0  0
   -4.1466   -1.1672   -2.5674 C   0  0  0  0  0  0  0  0  0  0  0  0
   -3.0249   -1.5400   -1.6069 C   0  0  0  0  0  0  0  0  0  0  0  0
   -2.2999   -0.3424   -1.0536 C   0  0  0  0  0  0  0  0  0  0  0  0
   -0.1656    0.6789   -0.3172 C   0  0  1  0  0  0  0  0  0  0  0  0
    1.3568    0.6572   -0.0920 C   0  0  0  0  0  0  0  0  0  0  0  0
    0.8195    2.0269    0.4208 C   0  0  2  0  0  0  0  0  0  0  0  0
    1.6351    3.1451    1.0318 C   0  0  0  0  0  0  0  0  0  0  0  0
    3.7191    2.6936    2.2448 C   0  0  0  0  0  0  0  0  0  0  0  0
    4.3435    2.0334    3.4433 C   0  0  2  0  0  0  0  0  0  0  0  0
    5.0129    0.7029    3.0672 C   0  0  0  0  0  0  0  0  0  0  0  0
    4.0550   -0.3117    2.3952 C   0  0  0  0  0  0  0  0  0  0  0  0
    5.7227    0.1001    4.2681 C   0  0  0  0  0  0  0  0  0  0  0  0
   -0.3528    1.2546    1.0970 C   0  0  0  0  0  0  0  0  0  0  0  0
   -0.0499    2.1085   -0.8701 C   0  0  0  0  0  0  0  0  0  0  0  0
   -5.1532   -3.3025   -2.5040 O   0  0  0  0  0  0  0  0  0  0  0  0
   -2.9136    0.6757   -0.7365 O   0  0  0  0  0  0  0  0  0  0  0  0
    4.4037    3.2285    1.3883 O   0  0  0  0  0  0  0  0  0  0  0  0
    5.9679    1.1107    2.0682 O   0  0  0  0  0  0  0  0  0  0  0  0
   -0.9666   -0.4192   -0.9172 N   0  0  0  0  0  0  0  0  0  0  0  0
    2.3849    2.6519    2.1885 N   0  0  0  0  0  0  0  0  0  0  0  0
    3.3657    1.7883    4.4085 F   0  0  0  0  0  0  0  0  0  0  0  0
   -6.1435   -5.0928   -2.4889 H   0  0  0  0  0  0  0  0  0  0  0  0
   -5.0249   -4.8696   -3.8123 H   0  0  0  0  0  0  0  0  0  0  0  0
   -6.5541   -4.0236   -3.8083 H   0  0  0  0  0  0  0  0  0  0  0  0
   -3.9113   -2.6868   -4.0180 H   0  0  0  0  0  0  0  0  0  0  0  0
   -6.6165   -1.4228   -3.6740 H   0  0  0  0  0  0  0  0  0  0  0  0
   -6.1844   -2.5981   -4.8924 H   0  0  0  0  0  0  0  0  0  0  0  0
   -5.4558   -1.0097   -4.9128 H   0  0  0  0  0  0  0  0  0  0  0  0
   -4.9523   -0.7618   -1.9917 H   0  0  0  0  0  0  0  0  0  0  0  0
   -3.7733   -0.4193   -3.2355 H   0  0  0  0  0  0  0  0  0  0  0  0
   -2.3203   -2.1539   -2.1279 H   0  0  0  0  0  0  0  0  0  0  0  0
   -3.4441   -2.0911   -0.7911 H   0  0  0  0  0  0  0  0  0  0  0  0
   -0.5056   -1.2277   -1.2241 H   0  0  0  0  0  0  0  0  0  0  0  0
    1.9889    0.6609   -0.9553 H   0  0  0  0  0  0  0  0  0  0  0  0
    1.7444   -0.0292    0.6315 H   0  0  0  0  0  0  0  0  0  0  0  0
    0.9791    3.9302    1.3450 H   0  0  0  0  0  0  0  0  0  0  0  0
    2.3203    3.5220    0.3016 H   0  0  0  0  0  0  0  0  0  0  0  0
    1.8909    2.2782    2.9480 H   0  0  0  0  0  0  0  0  0  0  0  0
    5.0915    2.6879    3.8393 H   0  0  0  0  0  0  0  0  0  0  0  0
    3.2861   -0.5885    3.0860 H   0  0  0  0  0  0  0  0  0  0  0  0
    4.6046   -1.1829    2.1057 H   0  0  0  0  0  0  0  0  0  0  0  0
    3.6124    0.1354    1.5297 H   0  0  0  0  0  0  0  0  0  0  0  0
    6.4827    0.7722    4.6082 H   0  0  0  0  0  0  0  0  0  0  0  0
    6.1695   -0.8308    3.9878 H   0  0  0  0  0  0  0  0  0  0  0  0
    5.0156   -0.0654    5.0539 H   0  0  0  0  0  0  0  0  0  0  0  0
    6.0984    0.3971    1.4394 H   0  0  0  0  0  0  0  0  0  0  0  0
   -0.1199    0.6221    1.9280 H   0  0  0  0  0  0  0  0  0  0  0  0
   -1.2540    1.7943    1.3005 H   0  0  0  0  0  0  0  0  0  0  0  0
    0.4551    2.2428   -1.8038 H   0  0  0  0  0  0  0  0  0  0  0  0
   -0.9239    2.7254   -0.8447 H   0  0  0  0  0  0  0  0  0  0  0  0
  1 18  1  0  0  0  0
  1 25  1  0  0  0  0
  1 26  1  0  0  0  0
  1 27  1  0  0  0  0
  2 18  1  0  0  0  0
  2  3  1  0  0  0  0
  2  4  1  0  0  0  0
  2 28  1  6  0  0  0
  3 29  1  0  0  0  0
  3 30  1  0  0  0  0
  3 31  1  0  0  0  0
  4  5  1  0  0  0  0
  4 32  1  0  0  0  0
  4 33  1  0  0  0  0
  5  6  1  0  0  0  0
  5 34  1  0  0  0  0
  5 35  1  0  0  0  0
  6 22  1  0  0  0  0
  6 19  2  0  0  0  0
  7 22  1  6  0  0  0
  7  8  1  0  0  0  0
  7 16  1  0  0  0  0
  7 17  1  0  0  0  0
  8  9  1  0  0  0  0
  8 37  1  0  0  0  0
  8 38  1  0  0  0  0
  9 10  1  1  0  0  0
  9 16  1  0  0  0  0
  9 17  1  0  0  0  0
 10 23  1  0  0  0  0
 10 39  1  0  0  0  0
 10 40  1  0  0  0  0
 11 23  1  0  0  0  0
 11 12  1  0  0  0  0
 11 20  2  0  0  0  0
 12 24  1  0  0  0  0
 12 13  1  0  0  0  0
 12 42  1  1  0  0  0
 13 14  1  0  0  0  0
 13 15  1  0  0  0  0
 13 21  1  0  0  0  0
 14 43  1  0  0  0  0
 14 44  1  0  0  0  0
 14 45  1  0  0  0  0
 15 46  1  0  0  0  0
 15 47  1  0  0  0  0
 15 48  1  0  0  0  0
 16 50  1  0  0  0  0
 16 51  1  0  0  0  0
 17 52  1  0  0  0  0
 17 53  1  0  0  0  0
 21 49  1  0  0  0  0
 22 36  1  0  0  0  0
 23 41  1  0  0  0  0
M  END
>  <score>
0.42602860927581787

$$$$
PV-003280643018
 OpenBabel08202115463D

 58 60  0  0  0  0  0  0  0  0999 V2000
    4.3314    2.4144    3.3069 C   0  0  0  0  0  0  0  0  0  0  0  0
    5.4742    1.9395    2.4051 C   0  0  1  0  0  0  0  0  0  0  0  0
    6.6125    1.3261    3.2316 C   0  0  0  0  0  0  0  0  0  0  0  0
    6.2310   -0.1332    3.3291 C   0  0  0  0  0  0  0  0  0  0  0  0
    5.0290    0.7657    1.5185 C   0  0  2  0  0  0  0  0  0  0  0  0
    3.5065    0.6935    1.4816 C   0  0  0  0  0  0  0  0  0  0  0  0
    1.4120    1.3456    0.3094 C   0  0  0  0  0  0  0  0  0  0  0  0
    0.8833    0.0439   -0.2731 C   0  0  0  0  0  0  0  0  0  0  0  0
   -0.6287    0.0912   -0.4125 C   0  0  0  0  0  0  0  0  0  0  0  0
   -2.4320   -1.3159   -1.3695 C   0  0  0  0  0  0  0  0  0  0  0  0
   -2.7583   -2.7183   -1.8087 C   0  0  0  0  0  0  0  0  0  0  0  0
   -4.1601   -2.8507   -2.3894 C   0  0  1  0  0  0  0  0  0  0  0  0
   -5.2041   -2.7156   -1.2856 C   0  0  0  0  0  0  0  0  0  0  0  0
   -5.9845   -1.4718   -1.6664 C   0  0  0  0  0  0  0  0  0  0  0  0
   -6.7283   -2.3197   -3.7983 C   0  0  0  0  0  0  0  0  0  0  0  0
   -4.4298   -1.7308   -3.3651 C   0  0  0  0  0  0  0  0  0  0  0  0
    0.8852    2.6502   -0.3841 C   0  0  0  0  0  0  0  0  0  0  0  0
    0.3771    3.2440    0.9449 C   0  0  0  0  0  0  0  0  0  0  0  0
    0.6422    1.8745    1.5745 C   0  0  0  0  0  0  0  0  0  0  0  0
    5.5473   -0.4121    2.0695 O   0  0  0  0  0  0  0  0  0  0  0  0
    2.9358    0.1146    2.4023 O   0  0  0  0  0  0  0  0  0  0  0  0
   -3.2401   -0.4076   -1.3113 O   0  0  0  0  0  0  0  0  0  0  0  0
    2.8750    1.2603    0.4559 N   0  0  0  0  0  0  0  0  0  0  0  0
   -1.1194   -1.1410   -1.0323 N   0  0  0  0  0  0  0  0  0  0  0  0
   -5.8286   -1.3777   -3.1186 N   0  0  0  0  0  0  0  0  0  0  0  0
    4.6697    3.2283    3.9136 H   0  0  0  0  0  0  0  0  0  0  0  0
    4.0153    1.6085    3.9358 H   0  0  0  0  0  0  0  0  0  0  0  0
    3.5107    2.7382    2.7015 H   0  0  0  0  0  0  0  0  0  0  0  0
    5.8257    2.7584    1.8129 H   0  0  0  0  0  0  0  0  0  0  0  0
    7.5524    1.4432    2.7338 H   0  0  0  0  0  0  0  0  0  0  0  0
    6.6642    1.7735    4.2022 H   0  0  0  0  0  0  0  0  0  0  0  0
    7.1018   -0.7465    3.4314 H   0  0  0  0  0  0  0  0  0  0  0  0
    5.5775   -0.2993    4.1599 H   0  0  0  0  0  0  0  0  0  0  0  0
    5.4045    0.8979    0.5253 H   0  0  0  0  0  0  0  0  0  0  0  0
    3.4251    1.6502   -0.2554 H   0  0  0  0  0  0  0  0  0  0  0  0
    1.1509   -0.7646    0.3747 H   0  0  0  0  0  0  0  0  0  0  0  0
    1.3198   -0.1117   -1.2376 H   0  0  0  0  0  0  0  0  0  0  0  0
   -0.9010    0.9264   -1.0233 H   0  0  0  0  0  0  0  0  0  0  0  0
   -1.0694    0.1987    0.5566 H   0  0  0  0  0  0  0  0  0  0  0  0
   -0.4844   -1.8656   -1.2116 H   0  0  0  0  0  0  0  0  0  0  0  0
   -2.6776   -3.3678   -0.9622 H   0  0  0  0  0  0  0  0  0  0  0  0
   -2.0512   -3.0146   -2.5550 H   0  0  0  0  0  0  0  0  0  0  0  0
   -4.2568   -3.7983   -2.8769 H   0  0  0  0  0  0  0  0  0  0  0  0
   -4.7348   -2.5925   -0.3319 H   0  0  0  0  0  0  0  0  0  0  0  0
   -5.8439   -3.5728   -1.2608 H   0  0  0  0  0  0  0  0  0  0  0  0
   -5.5780   -0.6071   -1.1849 H   0  0  0  0  0  0  0  0  0  0  0  0
   -7.0161   -1.5759   -1.4020 H   0  0  0  0  0  0  0  0  0  0  0  0
   -7.7373   -2.1311   -3.4962 H   0  0  0  0  0  0  0  0  0  0  0  0
   -6.4591   -3.3216   -3.5364 H   0  0  0  0  0  0  0  0  0  0  0  0
   -6.6436   -2.1923   -4.8573 H   0  0  0  0  0  0  0  0  0  0  0  0
   -4.2932   -2.0632   -4.3730 H   0  0  0  0  0  0  0  0  0  0  0  0
   -3.7875   -0.8967   -3.1739 H   0  0  0  0  0  0  0  0  0  0  0  0
    0.1062    2.4695   -1.0950 H   0  0  0  0  0  0  0  0  0  0  0  0
    1.6586    3.2311   -0.8417 H   0  0  0  0  0  0  0  0  0  0  0  0
    0.9759    4.0394    1.3368 H   0  0  0  0  0  0  0  0  0  0  0  0
   -0.6509    3.5410    0.9376 H   0  0  0  0  0  0  0  0  0  0  0  0
    1.2512    1.9218    2.4530 H   0  0  0  0  0  0  0  0  0  0  0  0
   -0.2510    1.3254    1.7882 H   0  0  0  0  0  0  0  0  0  0  0  0
  1  2  1  0  0  0  0
  1 26  1  0  0  0  0
  1 27  1  0  0  0  0
  1 28  1  0  0  0  0
  2  3  1  0  0  0  0
  2  5  1  0  0  0  0
  2 29  1  6  0  0  0
  3  4  1  0  0  0  0
  3 30  1  0  0  0  0
  3 31  1  0  0  0  0
  4 20  1  0  0  0  0
  4 32  1  0  0  0  0
  4 33  1  0  0  0  0
  5 20  1  0  0  0  0
  5  6  1  0  0  0  0
  5 34  1  6  0  0  0
  6 23  1  0  0  0  0
  6 21  2  0  0  0  0
  7 23  1  0  0  0  0
  7  8  1  0  0  0  0
  7 17  1  0  0  0  0
  7 19  1  0  0  0  0
  8  9  1  0  0  0  0
  8 36  1  0  0  0  0
  8 37  1  0  0  0  0
  9 24  1  0  0  0  0
  9 38  1  0  0  0  0
  9 39  1  0  0  0  0
 10 24  1  0  0  0  0
 10 11  1  0  0  0  0
 10 22  2  0  0  0  0
 11 12  1  0  0  0  0
 11 41  1  0  0  0  0
 11 42  1  0  0  0  0
 12 13  1  0  0  0  0
 12 16  1  0  0  0  0
 12 43  1  6  0  0  0
 13 14  1  0  0  0  0
 13 44  1  0  0  0  0
 13 45  1  0  0  0  0
 14 25  1  0  0  0  0
 14 46  1  0  0  0  0
 14 47  1  0  0  0  0
 15 25  1  0  0  0  0
 15 48  1  0  0  0  0
 15 49  1  0  0  0  0
 15 50  1  0  0  0  0
 16 25  1  0  0  0  0
 16 51  1  0  0  0  0
 16 52  1  0  0  0  0
 17 18  1  0  0  0  0
 17 53  1  0  0  0  0
 17 54  1  0  0  0  0
 18 19  1  0  0  0  0
 18 55  1  0  0  0  0
 18 56  1  0  0  0  0
 19 57  1  0  0  0  0
 19 58  1  0  0  0  0
 23 35  1  0  0  0  0
 24 40  1  0  0  0  0
M  END
>  <score>
0.42642813920974731

$$$$
Z3643256280
 OpenBabel08202115463D

 56 58  0  0  0  0  0  0  0  0999 V2000
    7.3046    2.5887    2.3555 C   0  0  0  0  0  0  0  0  0  0  0  0
    6.0034    1.9555    2.8205 C   0  0  0  0  0  0  0  0  0  0  0  0
    5.7408    2.2677    4.2847 C   0  0  0  0  0  0  0  0  0  0  0  0
    5.9552    0.4575    2.5677 C   0  0  0  0  0  0  0  0  0  0  0  0
    3.6532    2.1392    2.4795 C   0  0  0  0  0  0  0  0  0  0  0  0
    1.3158    2.6167    1.9007 C   0  0  1  0  0  0  0  0  0  0  0  0
    0.4734    3.1633    0.7347 C   0  0  0  0  0  0  0  0  0  0  0  0
    0.6275    1.7831    0.0863 C   0  0  2  0  0  0  0  0  0  0  0  0
    1.3513    1.4141   -1.2037 C   0  0  0  0  0  0  0  0  0  0  0  0
   -0.1575    1.1857   -1.0761 C   0  0  1  0  0  0  0  0  0  0  0  0
   -0.7030   -0.2188   -0.9765 C   0  0  0  0  0  0  0  0  0  0  0  0
   -2.6175   -1.5736   -1.4431 C   0  0  0  0  0  0  0  0  0  0  0  0
   -4.0079   -1.3963   -2.0222 C   0  0  0  0  0  0  0  0  0  0  0  0
   -4.8175   -2.6930   -2.0631 C   0  0  1  0  0  0  0  0  0  0  0  0
   -6.2836   -2.3675   -2.3231 C   0  0  0  0  0  0  0  0  0  0  0  0
   -7.1072   -3.6362   -2.5142 C   0  0  0  0  0  0  0  0  0  0  0  0
   -6.4689   -4.4841   -3.5938 C   0  0  0  0  0  0  0  0  0  0  0  0
   -4.2824   -3.5950   -3.1876 C   0  0  0  0  0  0  0  0  0  0  0  0
    0.8328    1.2133    1.4941 C   0  0  0  0  0  0  0  0  0  0  0  0
    4.8914    2.5953    2.1750 O   0  0  0  0  0  0  0  0  0  0  0  0
    3.4209    1.2562    3.2661 O   0  0  0  0  0  0  0  0  0  0  0  0
   -0.1104   -1.1627   -0.5393 O   0  0  0  0  0  0  0  0  0  0  0  0
   -1.9695   -0.2798   -1.4521 O   0  0  0  0  0  0  0  0  0  0  0  0
   -5.0999   -4.7726   -3.2727 O   0  0  0  0  0  0  0  0  0  0  0  0
    2.7598    2.8303    1.7659 N   0  0  0  0  0  0  0  0  0  0  0  0
    7.4366    2.4066    1.3094 H   0  0  0  0  0  0  0  0  0  0  0  0
    8.1224    2.1618    2.8975 H   0  0  0  0  0  0  0  0  0  0  0  0
    7.2709    3.6435    2.5322 H   0  0  0  0  0  0  0  0  0  0  0  0
    4.8182    1.8174    4.5861 H   0  0  0  0  0  0  0  0  0  0  0  0
    5.6803    3.3277    4.4179 H   0  0  0  0  0  0  0  0  0  0  0  0
    6.5392    1.8779    4.8810 H   0  0  0  0  0  0  0  0  0  0  0  0
    5.9271    0.2738    1.5140 H   0  0  0  0  0  0  0  0  0  0  0  0
    5.0790    0.0469    3.0246 H   0  0  0  0  0  0  0  0  0  0  0  0
    6.8255   -0.0029    2.9867 H   0  0  0  0  0  0  0  0  0  0  0  0
    3.0809    3.5035    1.1302 H   0  0  0  0  0  0  0  0  0  0  0  0
    0.9966    2.9357    2.8708 H   0  0  0  0  0  0  0  0  0  0  0  0
   -0.5308    3.4280    0.9925 H   0  0  0  0  0  0  0  0  0  0  0  0
    0.9264    3.9666    0.1922 H   0  0  0  0  0  0  0  0  0  0  0  0
    1.7236    2.1835   -1.8474 H   0  0  0  0  0  0  0  0  0  0  0  0
    2.0194    0.5785   -1.2224 H   0  0  0  0  0  0  0  0  0  0  0  0
   -0.8398    1.7955   -1.6306 H   0  0  0  0  0  0  0  0  0  0  0  0
   -2.6845   -1.9407   -0.4403 H   0  0  0  0  0  0  0  0  0  0  0  0
   -2.0596   -2.2647   -2.0399 H   0  0  0  0  0  0  0  0  0  0  0  0
   -3.9145   -1.0230   -3.0207 H   0  0  0  0  0  0  0  0  0  0  0  0
   -4.5368   -0.6849   -1.4230 H   0  0  0  0  0  0  0  0  0  0  0  0
   -4.7263   -3.2007   -1.1256 H   0  0  0  0  0  0  0  0  0  0  0  0
   -6.6726   -1.8219   -1.4888 H   0  0  0  0  0  0  0  0  0  0  0  0
   -6.3561   -1.7685   -3.2067 H   0  0  0  0  0  0  0  0  0  0  0  0
   -7.1355   -4.1863   -1.5969 H   0  0  0  0  0  0  0  0  0  0  0  0
   -8.1033   -3.3760   -2.8055 H   0  0  0  0  0  0  0  0  0  0  0  0
   -7.0093   -5.4032   -3.6832 H   0  0  0  0  0  0  0  0  0  0  0  0
   -6.5071   -3.9554   -4.5233 H   0  0  0  0  0  0  0  0  0  0  0  0
   -3.2722   -3.8747   -2.9726 H   0  0  0  0  0  0  0  0  0  0  0  0
   -4.3165   -3.0670   -4.1176 H   0  0  0  0  0  0  0  0  0  0  0  0
   -0.0627    0.8887    1.9814 H   0  0  0  0  0  0  0  0  0  0  0  0
    1.5754    0.4460    1.5633 H   0  0  0  0  0  0  0  0  0  0  0  0
  1  2  1  0  0  0  0
  1 26  1  0  0  0  0
  1 27  1  0  0  0  0
  1 28  1  0  0  0  0
  2  3  1  0  0  0  0
  2  4  1  0  0  0  0
  2 20  1  0  0  0  0
  3 29  1  0  0  0  0
  3 30  1  0  0  0  0
  3 31  1  0  0  0  0
  4 32  1  0  0  0  0
  4 33  1  0  0  0  0
  4 34  1  0  0  0  0
  5 20  1  0  0  0  0
  5 25  1  0  0  0  0
  5 21  2  0  0  0  0
  6 25  1  0  0  0  0
  6  7  1  0  0  0  0
  6 19  1  0  0  0  0
  6 36  1  1  0  0  0
  7 37  1  0  0  0  0
  7 38  1  0  0  0  0
  8  7  1  1  0  0  0
  8  9  1  0  0  0  0
  8 10  1  0  0  0  0
  8 19  1  0  0  0  0
  9 10  1  0  0  0  0
  9 39  1  0  0  0  0
  9 40  1  0  0  0  0
 10 11  1  0  0  0  0
 10 41  1  6  0  0  0
 11 23  1  0  0  0  0
 11 22  2  0  0  0  0
 12 23  1  0  0  0  0
 12 13  1  0  0  0  0
 12 42  1  0  0  0  0
 12 43  1  0  0  0  0
 13 14  1  0  0  0  0
 13 44  1  0  0  0  0
 13 45  1  0  0  0  0
 14 15  1  0  0  0  0
 14 18  1  0  0  0  0
 14 46  1  1  0  0  0
 15 16  1  0  0  0  0
 15 47  1  0  0  0  0
 15 48  1  0  0  0  0
 16 17  1  0  0  0  0
 16 49  1  0  0  0  0
 16 50  1  0  0  0  0
 17 24  1  0  0  0  0
 17 51  1  0  0  0  0
 17 52  1  0  0  0  0
 18 24  1  0  0  0  0
 18 53  1  0  0  0  0
 18 54  1  0  0  0  0
 19 55  1  0  0  0  0
 19 56  1  0  0  0  0
 25 35  1  0  0  0  0
M  END
>  <score>
0.4265674352645874

$$$$
Z4154129741
 OpenBabel08202115463D

 53 56  0  0  0  0  0  0  0  0999 V2000
   -8.6027   -3.0134   -4.4889 C   0  0  0  0  0  0  0  0  0  0  0  0
   -7.1380   -2.9616   -4.1235 C   0  0  0  0  0  0  0  0  0  0  0  0
   -6.5356   -2.1369   -3.2035 C   0  0  0  0  0  0  0  0  0  0  0  0
   -4.1566   -1.8723   -2.4461 C   0  0  0  0  0  0  0  0  0  0  0  0
   -3.0817   -2.6580   -2.0603 C   0  0  0  0  0  0  0  0  0  0  0  0
   -2.0565   -2.1079   -1.3143 C   0  0  0  0  0  0  0  0  0  0  0  0
   -2.1003   -0.7694   -0.9565 C   0  0  0  0  0  0  0  0  0  0  0  0
   -1.0456   -0.2068   -0.0816 C   0  0  0  0  0  0  0  0  0  0  0  0
   -0.1111   -1.0282    0.5585 C   0  0  0  0  0  0  0  0  0  0  0  0
    0.8157   -0.4215    1.3654 C   0  0  0  0  0  0  0  0  0  0  0  0
    0.7584    0.9728    1.4802 C   0  0  0  0  0  0  0  0  0  0  0  0
    1.6440    1.7537    2.4069 C   0  0  0  0  0  0  0  0  0  0  0  0
    3.3882    2.1141    0.7972 C   0  0  0  0  0  0  0  0  0  0  0  0
    4.8649    1.9439    0.4919 C   0  0  0  0  0  0  0  0  0  0  0  0
    5.3639    2.0475    2.8235 C   0  0  0  0  0  0  0  0  0  0  0  0
    6.1820    2.7636    3.8858 C   0  0  0  0  0  0  0  0  0  0  0  0
    5.7112    0.5634    2.8285 C   0  0  0  0  0  0  0  0  0  0  0  0
    3.8872    2.2177    3.1288 C   0  0  0  0  0  0  0  0  0  0  0  0
   -3.1722    0.0138   -1.3413 C   0  0  0  0  0  0  0  0  0  0  0  0
   -4.2005   -0.5377   -2.0895 C   0  0  0  0  0  0  0  0  0  0  0  0
   -6.1021   -3.7448   -4.6504 C   0  0  0  0  0  0  0  0  0  0  0  0
   -5.2157   -2.4403   -3.2101 N   0  0  0  0  0  0  0  0  0  0  0  0
    3.0759    1.5491    2.1098 N   0  0  0  0  0  0  0  0  0  0  0  0
    5.6762    2.6124    1.5109 N   0  0  0  0  0  0  0  0  0  0  0  0
   -0.1410    1.7144    0.8390 N   0  0  0  0  0  0  0  0  0  0  0  0
   -1.0565    1.1170    0.0453 N   0  0  0  0  0  0  0  0  0  0  0  0
   -4.9294   -3.4334   -4.0904 N   0  0  0  0  0  0  0  0  0  0  0  0
   -9.1297   -3.6044   -3.7692 H   0  0  0  0  0  0  0  0  0  0  0  0
   -8.7128   -3.4512   -5.4589 H   0  0  0  0  0  0  0  0  0  0  0  0
   -9.0032   -2.0212   -4.4972 H   0  0  0  0  0  0  0  0  0  0  0  0
   -7.0034   -1.4179   -2.6154 H   0  0  0  0  0  0  0  0  0  0  0  0
   -3.0468   -3.6612   -2.3321 H   0  0  0  0  0  0  0  0  0  0  0  0
   -1.2520   -2.6983   -1.0213 H   0  0  0  0  0  0  0  0  0  0  0  0
   -0.1195   -2.0599    0.4270 H   0  0  0  0  0  0  0  0  0  0  0  0
    1.5344   -0.9757    1.8732 H   0  0  0  0  0  0  0  0  0  0  0  0
    1.4522    1.4413    3.4122 H   0  0  0  0  0  0  0  0  0  0  0  0
    1.4161    2.7943    2.3066 H   0  0  0  0  0  0  0  0  0  0  0  0
    3.1444    3.1559    0.7937 H   0  0  0  0  0  0  0  0  0  0  0  0
    2.8123    1.6100    0.0494 H   0  0  0  0  0  0  0  0  0  0  0  0
    5.1043    0.9011    0.4788 H   0  0  0  0  0  0  0  0  0  0  0  0
    5.0786    2.3715   -0.4654 H   0  0  0  0  0  0  0  0  0  0  0  0
    6.6265    2.4767    1.3137 H   0  0  0  0  0  0  0  0  0  0  0  0
    7.2015    2.4443    3.8270 H   0  0  0  0  0  0  0  0  0  0  0  0
    5.7908    2.5306    4.8541 H   0  0  0  0  0  0  0  0  0  0  0  0
    6.1294    3.8200    3.7241 H   0  0  0  0  0  0  0  0  0  0  0  0
    5.3154    0.1069    3.7116 H   0  0  0  0  0  0  0  0  0  0  0  0
    6.7746    0.4462    2.8126 H   0  0  0  0  0  0  0  0  0  0  0  0
    5.2874    0.0953    1.9647 H   0  0  0  0  0  0  0  0  0  0  0  0
    3.6478    3.2605    3.1419 H   0  0  0  0  0  0  0  0  0  0  0  0
    3.6735    1.7901    4.0861 H   0  0  0  0  0  0  0  0  0  0  0  0
   -3.2071    1.0171   -1.0696 H   0  0  0  0  0  0  0  0  0  0  0  0
   -5.0050    0.0527   -2.3825 H   0  0  0  0  0  0  0  0  0  0  0  0
   -6.2294   -4.4733   -5.3817 H   0  0  0  0  0  0  0  0  0  0  0  0
  1  2  1  0  0  0  0
  1 28  1  0  0  0  0
  1 29  1  0  0  0  0
  1 30  1  0  0  0  0
  2 21  1  0  0  0  0
  2  3  2  0  0  0  0
  3 22  1  0  0  0  0
  3 31  1  0  0  0  0
  4 22  1  0  0  0  0
  4 20  1  0  0  0  0
  4  5  2  0  0  0  0
  5  6  1  0  0  0  0
  5 32  1  0  0  0  0
  6 33  1  0  0  0  0
  6  7  2  0  0  0  0
  7  8  1  0  0  0  0
  7 19  1  0  0  0  0
  8 26  1  0  0  0  0
  8  9  2  0  0  0  0
  9 10  1  0  0  0  0
  9 34  1  0  0  0  0
 10 35  1  0  0  0  0
 10 11  2  0  0  0  0
 11 12  1  0  0  0  0
 11 25  1  0  0  0  0
 12 23  1  0  0  0  0
 12 36  1  0  0  0  0
 12 37  1  0  0  0  0
 13 23  1  0  0  0  0
 13 14  1  0  0  0  0
 13 38  1  0  0  0  0
 13 39  1  0  0  0  0
 14 24  1  0  0  0  0
 14 40  1  0  0  0  0
 14 41  1  0  0  0  0
 15 24  1  0  0  0  0
 15 16  1  0  0  0  0
 15 17  1  0  0  0  0
 15 18  1  0  0  0  0
 16 43  1  0  0  0  0
 16 44  1  0  0  0  0
 16 45  1  0  0  0  0
 17 46  1  0  0  0  0
 17 47  1  0  0  0  0
 17 48  1  0  0  0  0
 18 23  1  0  0  0  0
 18 49  1  0  0  0  0
 18 50  1  0  0  0  0
 19 51  1  0  0  0  0
 19 20  2  0  0  0  0
 20 52  1  0  0  0  0
 21 53  1  0  0  0  0
 21 27  2  0  0  0  0
 22 27  1  0  0  0  0
 24 42  1  0  0  0  0
 25 26  2  0  0  0  0
M  END
>  <score>
0.42656934261322021

$$$$
Z3518630939
 OpenBabel08202115463D

 48 50  0  0  0  0  0  0  0  0999 V2000
   -7.7752   -2.0253   -3.7784 C   0  0  0  0  0  0  0  0  0  0  0  0
   -5.6578   -2.5468   -2.8555 C   0  0  0  0  0  0  0  0  0  0  0  0
   -4.4828   -1.9949   -2.1332 C   0  0  0  0  0  0  0  0  0  0  0  0
   -3.3834   -2.8005   -1.9044 C   0  0  0  0  0  0  0  0  0  0  0  0
   -2.2799   -2.2935   -1.2361 C   0  0  0  0  0  0  0  0  0  0  0  0
   -2.2811   -0.9840   -0.7938 C   0  0  0  0  0  0  0  0  0  0  0  0
   -0.2383   -1.4753    0.3539 C   0  0  0  0  0  0  0  0  0  0  0  0
    0.7687   -0.8232    1.2613 C   0  0  0  0  0  0  0  0  0  0  0  0
    0.5397    1.3556    0.2978 C   0  0  0  0  0  0  0  0  0  0  0  0
    1.2454    2.7228    0.1197 C   0  0  0  0  0  0  0  0  0  0  0  0
    3.5736    2.6785    0.4514 C   0  0  0  0  0  0  0  0  0  0  0  0
    3.8504    1.3033    0.9443 C   0  0  2  0  0  0  0  0  0  0  0  0
    6.0844    0.7296    1.9526 C   0  0  0  0  0  0  0  0  0  0  0  0
    6.7397    1.0872    3.1068 C   0  0  0  0  0  0  0  0  0  0  0  0
    5.8646    1.9557    3.7733 C   0  0  0  0  0  0  0  0  0  0  0  0
    2.5878    0.6446    1.5561 C   0  0  0  0  0  0  0  0  0  0  0  0
   -3.3839   -0.1761   -1.0234 C   0  0  0  0  0  0  0  0  0  0  0  0
   -4.4843   -0.6815   -1.6897 C   0  0  0  0  0  0  0  0  0  0  0  0
   -6.6012   -1.6203   -3.0572 O   0  0  0  0  0  0  0  0  0  0  0  0
   -5.7600   -3.6894   -3.2207 O   0  0  0  0  0  0  0  0  0  0  0  0
   -1.2474   -0.5170   -0.0540 O   0  0  0  0  0  0  0  0  0  0  0  0
    2.4993    2.8089   -0.4959 O   0  0  0  0  0  0  0  0  0  0  0  0
    1.5222    0.2916    0.6484 N   0  0  0  0  0  0  0  0  0  0  0  0
    4.8904    1.3685    1.9656 N   0  0  0  0  0  0  0  0  0  0  0  0
    4.7332    2.1241    3.0825 N   0  0  0  0  0  0  0  0  0  0  0  0
   -3.3226    1.4555   -0.4515 Cl  0  0  0  0  0  0  0  0  0  0  0  0
   -8.3458   -2.7041   -3.1796 H   0  0  0  0  0  0  0  0  0  0  0  0
   -7.4856   -2.5091   -4.6878 H   0  0  0  0  0  0  0  0  0  0  0  0
   -8.3689   -1.1645   -4.0051 H   0  0  0  0  0  0  0  0  0  0  0  0
   -3.3840   -3.7870   -2.2336 H   0  0  0  0  0  0  0  0  0  0  0  0
   -1.4509   -2.8984   -1.0674 H   0  0  0  0  0  0  0  0  0  0  0  0
    0.2614   -1.8518   -0.5141 H   0  0  0  0  0  0  0  0  0  0  0  0
   -0.7094   -2.2834    0.8735 H   0  0  0  0  0  0  0  0  0  0  0  0
    1.4705   -1.5693    1.5708 H   0  0  0  0  0  0  0  0  0  0  0  0
    0.2499   -0.4440    2.1169 H   0  0  0  0  0  0  0  0  0  0  0  0
    0.0500    1.0925   -0.6165 H   0  0  0  0  0  0  0  0  0  0  0  0
   -0.1850    1.4349    1.0810 H   0  0  0  0  0  0  0  0  0  0  0  0
    0.5818    3.3359   -0.4535 H   0  0  0  0  0  0  0  0  0  0  0  0
    1.3580    3.1375    1.0997 H   0  0  0  0  0  0  0  0  0  0  0  0
    4.4652    3.0441   -0.0137 H   0  0  0  0  0  0  0  0  0  0  0  0
    3.3373    3.2875    1.2989 H   0  0  0  0  0  0  0  0  0  0  0  0
    4.1909    0.7043    0.1256 H   0  0  0  0  0  0  0  0  0  0  0  0
    6.4376    0.0909    1.2117 H   0  0  0  0  0  0  0  0  0  0  0  0
    7.6828    0.7793    3.4187 H   0  0  0  0  0  0  0  0  0  0  0  0
    6.0692    2.4099    4.6863 H   0  0  0  0  0  0  0  0  0  0  0  0
    2.8998   -0.2518    2.0501 H   0  0  0  0  0  0  0  0  0  0  0  0
    2.1851    1.3271    2.2751 H   0  0  0  0  0  0  0  0  0  0  0  0
   -5.3132   -0.0766   -1.8584 H   0  0  0  0  0  0  0  0  0  0  0  0
  1 19  1  0  0  0  0
  1 27  1  0  0  0  0
  1 28  1  0  0  0  0
  1 29  1  0  0  0  0
  2 19  1  0  0  0  0
  2  3  1  0  0  0  0
  2 20  2  0  0  0  0
  3 18  1  0  0  0  0
  3  4  2  0  0  0  0
  4  5  1  0  0  0  0
  4 30  1  0  0  0  0
  5 31  1  0  0  0  0
  5  6  2  0  0  0  0
  6 21  1  0  0  0  0
  6 17  1  0  0  0  0
  7 21  1  0  0  0  0
  7  8  1  0  0  0  0
  7 32  1  0  0  0  0
  7 33  1  0  0  0  0
  8 23  1  0  0  0  0
  8 34  1  0  0  0  0
  8 35  1  0  0  0  0
  9 23  1  0  0  0  0
  9 10  1  0  0  0  0
  9 36  1  0  0  0  0
  9 37  1  0  0  0  0
 10 22  1  0  0  0  0
 10 38  1  0  0  0  0
 10 39  1  0  0  0  0
 11 22  1  0  0  0  0
 11 12  1  0  0  0  0
 11 40  1  0  0  0  0
 11 41  1  0  0  0  0
 12 24  1  0  0  0  0
 12 16  1  0  0  0  0
 12 42  1  6  0  0  0
 13 24  1  0  0  0  0
 13 43  1  0  0  0  0
 13 14  2  0  0  0  0
 14 15  1  0  0  0  0
 14 44  1  0  0  0  0
 15 45  1  0  0  0  0
 15 25  2  0  0  0  0
 16 23  1  0  0  0  0
 16 46  1  0  0  0  0
 16 47  1  0  0  0  0
 17 26  1  0  0  0  0
 17 18  2  0  0  0  0
 18 48  1  0  0  0  0
 24 25  1  0  0  0  0
M  END
>  <score>
0.42683291435241699

$$$$
Z4401281995
 OpenBabel08202115463D

 57 59  0  0  0  0  0  0  0  0999 V2000
    6.6535    0.7640    1.7062 C   0  0  0  0  0  0  0  0  0  0  0  0
    5.3668    0.8300    2.5030 C   0  0  1  0  0  0  0  0  0  0  0  0
    5.0887    2.2648    2.9395 C   0  0  0  0  0  0  0  0  0  0  0  0
    3.7869    2.6159    2.2443 C   0  0  0  0  0  0  0  0  0  0  0  0
    2.0840    1.4268    0.9682 C   0  0  0  0  0  0  0  0  0  0  0  0
    1.1561    2.5805    1.2765 C   0  0  0  0  0  0  0  0  0  0  0  0
    0.0011    2.6212    0.2872 C   0  0  0  0  0  0  0  0  0  0  0  0
   -1.8344    1.4389   -0.6746 C   0  0  0  0  0  0  0  0  0  0  0  0
   -2.8125    0.2926   -0.5938 C   0  0  0  0  0  0  0  0  0  0  0  0
   -4.9162   -0.7092   -1.2817 C   0  0  0  0  0  0  0  0  0  0  0  0
   -4.5905   -1.8393   -2.2595 C   0  0  0  0  0  0  0  0  0  0  0  0
   -3.1954   -2.3964   -1.9481 C   0  0  0  0  0  0  0  0  0  0  0  0
   -2.9381   -3.6606   -2.7530 C   0  0  0  0  0  0  0  0  0  0  0  0
   -5.2270   -4.1661   -2.9203 C   0  0  0  0  0  0  0  0  0  0  0  0
   -5.6351   -2.9518   -2.1179 C   0  0  0  0  0  0  0  0  0  0  0  0
    0.1419    0.2477   -0.0662 C   0  0  0  0  0  0  0  0  0  0  0  0
    1.3057    0.1325    0.9040 C   0  0  0  0  0  0  0  0  0  0  0  0
    4.1974    0.4161    1.6427 C   0  0  0  0  0  0  0  0  0  0  0  0
    5.4689   -0.0296    3.6522 O   0  0  0  0  0  0  0  0  0  0  0  0
   -2.5854   -0.6813    0.1228 O   0  0  0  0  0  0  0  0  0  0  0  0
   -3.9472   -4.6425   -2.5184 O   0  0  0  0  0  0  0  0  0  0  0  0
    3.1242    1.3264    2.0451 N   0  0  1  0  0  0  0  0  0  0  0  0
   -0.7326    1.3599    0.2941 N   0  0  0  0  0  0  0  0  0  0  0  0
   -3.9392    0.3684   -1.3287 N   0  0  0  0  0  0  0  0  0  0  0  0
    6.8185   -0.2405    1.3768 H   0  0  0  0  0  0  0  0  0  0  0  0
    7.4707    1.0757    2.3225 H   0  0  0  0  0  0  0  0  0  0  0  0
    6.5801    1.4102    0.8566 H   0  0  0  0  0  0  0  0  0  0  0  0
    6.2501    0.2042    4.1588 H   0  0  0  0  0  0  0  0  0  0  0  0
    5.8759    2.9172    2.6240 H   0  0  0  0  0  0  0  0  0  0  0  0
    4.9799    2.3242    4.0023 H   0  0  0  0  0  0  0  0  0  0  0  0
    3.1904    3.2576    2.8586 H   0  0  0  0  0  0  0  0  0  0  0  0
    3.9755    3.0941    1.3058 H   0  0  0  0  0  0  0  0  0  0  0  0
    2.5609    1.5992    0.0260 H   0  0  0  0  0  0  0  0  0  0  0  0
    1.7038    3.4977    1.2147 H   0  0  0  0  0  0  0  0  0  0  0  0
    0.7668    2.4630    2.2662 H   0  0  0  0  0  0  0  0  0  0  0  0
    0.3870    2.7969   -0.6952 H   0  0  0  0  0  0  0  0  0  0  0  0
   -0.6638    3.4150    0.5571 H   0  0  0  0  0  0  0  0  0  0  0  0
   -1.4152    1.4534   -1.6589 H   0  0  0  0  0  0  0  0  0  0  0  0
   -2.3693    2.3491   -0.5007 H   0  0  0  0  0  0  0  0  0  0  0  0
   -4.1012    1.1509   -1.8961 H   0  0  0  0  0  0  0  0  0  0  0  0
   -5.8784   -0.3106   -1.5266 H   0  0  0  0  0  0  0  0  0  0  0  0
   -4.9374   -1.1097   -0.2896 H   0  0  0  0  0  0  0  0  0  0  0  0
   -4.6070   -1.4615   -3.2604 H   0  0  0  0  0  0  0  0  0  0  0  0
   -3.1316   -2.6239   -0.9045 H   0  0  0  0  0  0  0  0  0  0  0  0
   -2.4586   -1.6624   -2.1994 H   0  0  0  0  0  0  0  0  0  0  0  0
   -2.9279   -3.4141   -3.7942 H   0  0  0  0  0  0  0  0  0  0  0  0
   -1.9878   -4.0644   -2.4722 H   0  0  0  0  0  0  0  0  0  0  0  0
   -5.1917   -3.9035   -3.9570 H   0  0  0  0  0  0  0  0  0  0  0  0
   -5.9499   -4.9409   -2.7726 H   0  0  0  0  0  0  0  0  0  0  0  0
   -6.5791   -2.5956   -2.4740 H   0  0  0  0  0  0  0  0  0  0  0  0
   -5.7218   -3.2241   -1.0868 H   0  0  0  0  0  0  0  0  0  0  0  0
    0.5237    0.4086   -1.0527 H   0  0  0  0  0  0  0  0  0  0  0  0
   -0.4220   -0.6614   -0.0453 H   0  0  0  0  0  0  0  0  0  0  0  0
    0.9281   -0.0978    1.8783 H   0  0  0  0  0  0  0  0  0  0  0  0
    1.9567   -0.6519    0.5787 H   0  0  0  0  0  0  0  0  0  0  0  0
    4.4278    0.5348    0.6046 H   0  0  0  0  0  0  0  0  0  0  0  0
    3.9254   -0.6009    1.8342 H   0  0  0  0  0  0  0  0  0  0  0  0
  1  2  1  0  0  0  0
  1 25  1  0  0  0  0
  1 26  1  0  0  0  0
  1 27  1  0  0  0  0
  2 19  1  1  0  0  0
  2  3  1  0  0  0  0
  2 18  1  0  0  0  0
  3  4  1  0  0  0  0
  3 29  1  0  0  0  0
  3 30  1  0  0  0  0
  4 22  1  0  0  0  0
  4 31  1  0  0  0  0
  4 32  1  0  0  0  0
  5  6  1  0  0  0  0
  5 17  1  0  0  0  0
  5 33  1  0  0  0  0
  6  7  1  0  0  0  0
  6 34  1  0  0  0  0
  6 35  1  0  0  0  0
  7 23  1  0  0  0  0
  7 36  1  0  0  0  0
  7 37  1  0  0  0  0
  8 23  1  0  0  0  0
  8  9  1  0  0  0  0
  8 38  1  0  0  0  0
  8 39  1  0  0  0  0
  9 24  1  0  0  0  0
  9 20  2  0  0  0  0
 10 24  1  0  0  0  0
 10 11  1  0  0  0  0
 10 41  1  0  0  0  0
 10 42  1  0  0  0  0
 11 12  1  0  0  0  0
 11 15  1  0  0  0  0
 11 43  1  0  0  0  0
 12 13  1  0  0  0  0
 12 44  1  0  0  0  0
 12 45  1  0  0  0  0
 13 21  1  0  0  0  0
 13 46  1  0  0  0  0
 13 47  1  0  0  0  0
 14 21  1  0  0  0  0
 14 15  1  0  0  0  0
 14 48  1  0  0  0  0
 14 49  1  0  0  0  0
 15 50  1  0  0  0  0
 15 51  1  0  0  0  0
 16 23  1  0  0  0  0
 16 17  1  0  0  0  0
 16 52  1  0  0  0  0
 16 53  1  0  0  0  0
 17 54  1  0  0  0  0
 17 55  1  0  0  0  0
 18 22  1  0  0  0  0
 18 56  1  0  0  0  0
 18 57  1  0  0  0  0
 19 28  1  0  0  0  0
 22  5  1  6  0  0  0
 24 40  1  0  0  0  0
M  END
>  <score>
0.42693322896957397

$$$$
PV-003424634276
 OpenBabel08202115463D

 55 57  0  0  0  0  0  0  0  0999 V2000
   -6.6160   -3.6210   -4.0564 C   0  0  0  0  0  0  0  0  0  0  0  0
   -5.8161   -2.5043   -3.4281 C   0  0  0  0  0  0  0  0  0  0  0  0
   -5.8856   -1.1966   -3.7277 C   0  0  0  0  0  0  0  0  0  0  0  0
   -4.3928   -1.3913   -2.1429 C   0  0  0  0  0  0  0  0  0  0  0  0
   -3.3908   -0.8423   -1.1888 C   0  0  0  0  0  0  0  0  0  0  0  0
   -2.3799    1.1015   -0.1025 C   0  0  0  0  0  0  0  0  0  0  0  0
   -0.9504    1.1129   -0.6331 C   0  0  1  0  0  0  0  0  0  0  0  0
   -0.9057    1.7433   -2.0159 C   0  0  0  0  0  0  0  0  0  0  0  0
    1.1162    1.1835    0.7301 C   0  0  0  0  0  0  0  0  0  0  0  0
    1.9922    2.0630    1.5816 C   0  0  0  0  0  0  0  0  0  0  0  0
    3.3192    1.3936    1.9721 C   0  0  2  0  0  0  0  0  0  0  0  0
    3.0537    0.1329    2.7743 C   0  0  0  0  0  0  0  0  0  0  0  0
    4.3655   -0.5377    3.1850 C   0  0  0  0  0  0  0  0  0  0  0  0
    5.5460    0.2601    2.6335 C   0  0  2  0  0  0  0  0  0  0  0  0
    5.4960    1.6913    3.1861 C   0  0  0  0  0  0  0  0  0  0  0  0
    4.1629    2.3501    2.8062 C   0  0  0  0  0  0  0  0  0  0  0  0
    5.4273    0.3263    1.1041 C   0  0  0  0  0  0  0  0  0  0  0  0
    4.1091    1.0244    0.7159 C   0  0  0  0  0  0  0  0  0  0  0  0
   -4.8405   -2.6294   -2.4022 C   0  0  0  0  0  0  0  0  0  0  0  0
   -4.4937   -3.9163   -1.6916 C   0  0  0  0  0  0  0  0  0  0  0  0
   -5.0186   -0.4758   -2.9507 O   0  0  0  0  0  0  0  0  0  0  0  0
   -2.6457   -1.5989   -0.5575 O   0  0  0  0  0  0  0  0  0  0  0  0
    1.4367    0.0249    0.4684 O   0  0  0  0  0  0  0  0  0  0  0  0
   -3.3146    0.4821   -1.0302 N   0  0  0  0  0  0  0  0  0  0  0  0
   -0.0116    1.7425    0.2887 N   0  0  0  0  0  0  0  0  0  0  0  0
   -6.1845   -4.5631   -3.7899 H   0  0  0  0  0  0  0  0  0  0  0  0
   -6.6048   -3.5122   -5.1208 H   0  0  0  0  0  0  0  0  0  0  0  0
   -7.6253   -3.5786   -3.7037 H   0  0  0  0  0  0  0  0  0  0  0  0
   -6.5118   -0.7879   -4.4505 H   0  0  0  0  0  0  0  0  0  0  0  0
   -3.9089    1.0564   -1.5568 H   0  0  0  0  0  0  0  0  0  0  0  0
   -2.3994    0.5571    0.8185 H   0  0  0  0  0  0  0  0  0  0  0  0
   -2.6887    2.1109    0.0725 H   0  0  0  0  0  0  0  0  0  0  0  0
   -0.6529    0.0914   -0.7465 H   0  0  0  0  0  0  0  0  0  0  0  0
    0.0693    1.6123   -2.4368 H   0  0  0  0  0  0  0  0  0  0  0  0
   -1.1231    2.7881   -1.9385 H   0  0  0  0  0  0  0  0  0  0  0  0
   -1.6319    1.2731   -2.6456 H   0  0  0  0  0  0  0  0  0  0  0  0
   -0.2256    2.6440    0.6078 H   0  0  0  0  0  0  0  0  0  0  0  0
    1.4596    2.3106    2.4760 H   0  0  0  0  0  0  0  0  0  0  0  0
    2.2096    2.9575    1.0362 H   0  0  0  0  0  0  0  0  0  0  0  0
    2.4836   -0.5483    2.1779 H   0  0  0  0  0  0  0  0  0  0  0  0
    2.5000    0.3874    3.6538 H   0  0  0  0  0  0  0  0  0  0  0  0
    4.4278   -0.5730    4.2526 H   0  0  0  0  0  0  0  0  0  0  0  0
    4.3943   -1.5327    2.7924 H   0  0  0  0  0  0  0  0  0  0  0  0
    6.4679   -0.2077    2.9097 H   0  0  0  0  0  0  0  0  0  0  0  0
    5.5872    1.6636    4.2519 H   0  0  0  0  0  0  0  0  0  0  0  0
    6.3032    2.2596    2.7732 H   0  0  0  0  0  0  0  0  0  0  0  0
    3.6290    2.6059    3.6975 H   0  0  0  0  0  0  0  0  0  0  0  0
    4.3563    3.2364    2.2388 H   0  0  0  0  0  0  0  0  0  0  0  0
    5.4358   -0.6658    0.7034 H   0  0  0  0  0  0  0  0  0  0  0  0
    6.2529    0.8790    0.7068 H   0  0  0  0  0  0  0  0  0  0  0  0
    3.5236    0.3635    0.1115 H   0  0  0  0  0  0  0  0  0  0  0  0
    4.3294    1.9134    0.1627 H   0  0  0  0  0  0  0  0  0  0  0  0
   -5.0083   -3.9567   -0.7543 H   0  0  0  0  0  0  0  0  0  0  0  0
   -3.4381   -3.9558   -1.5207 H   0  0  0  0  0  0  0  0  0  0  0  0
   -4.7889   -4.7482   -2.2964 H   0  0  0  0  0  0  0  0  0  0  0  0
  1  2  1  0  0  0  0
  1 26  1  0  0  0  0
  1 27  1  0  0  0  0
  1 28  1  0  0  0  0
  2 19  1  0  0  0  0
  2  3  2  0  0  0  0
  3 21  1  0  0  0  0
  3 29  1  0  0  0  0
  4 21  1  0  0  0  0
  4  5  1  0  0  0  0
  4 19  2  0  0  0  0
  5 24  1  0  0  0  0
  5 22  2  0  0  0  0
  6 24  1  0  0  0  0
  6  7  1  0  0  0  0
  6 31  1  0  0  0  0
  6 32  1  0  0  0  0
  7  8  1  0  0  0  0
  7 25  1  0  0  0  0
  7 33  1  6  0  0  0
  8 34  1  0  0  0  0
  8 35  1  0  0  0  0
  8 36  1  0  0  0  0
  9 25  1  0  0  0  0
  9 10  1  0  0  0  0
  9 23  2  0  0  0  0
 10 38  1  0  0  0  0
 10 39  1  0  0  0  0
 11 10  1  6  0  0  0
 11 12  1  0  0  0  0
 11 16  1  0  0  0  0
 11 18  1  0  0  0  0
 12 13  1  0  0  0  0
 12 40  1  0  0  0  0
 12 41  1  0  0  0  0
 13 14  1  0  0  0  0
 13 42  1  0  0  0  0
 13 43  1  0  0  0  0
 14 15  1  0  0  0  0
 14 17  1  0  0  0  0
 14 44  1  1  0  0  0
 15 16  1  0  0  0  0
 15 45  1  0  0  0  0
 15 46  1  0  0  0  0
 16 47  1  0  0  0  0
 16 48  1  0  0  0  0
 17 18  1  0  0  0  0
 17 49  1  0  0  0  0
 17 50  1  0  0  0  0
 18 51  1  0  0  0  0
 18 52  1  0  0  0  0
 19 20  1  0  0  0  0
 20 53  1  0  0  0  0
 20 54  1  0  0  0  0
 20 55  1  0  0  0  0
 24 30  1  0  0  0  0
 25 37  1  0  0  0  0
M  END
>  <score>
0.42707729339599609

$$$$
PV-003334182869
 OpenBabel08202115463D

 49 50  0  0  0  0  0  0  0  0999 V2000
    4.7617   -0.2214    4.6343 C   0  0  0  0  0  0  0  0  0  0  0  0
    4.8037    0.6069    3.3605 C   0  0  0  0  0  0  0  0  0  0  0  0
    6.1392    0.4464    2.6525 C   0  0  0  0  0  0  0  0  0  0  0  0
    4.4607    2.0599    3.6462 C   0  0  0  0  0  0  0  0  0  0  0  0
    3.4291    0.6068    1.4428 C   0  0  0  0  0  0  0  0  0  0  0  0
    1.8812    0.4212   -0.4530 C   0  0  0  0  0  0  0  0  0  0  0  0
    1.0347    1.6360   -0.3537 C   0  0  0  0  0  0  0  0  0  0  0  0
   -0.2802    1.8997   -0.1981 C   0  0  0  0  0  0  0  0  0  0  0  0
   -1.4156    0.9273   -0.0631 C   0  0  0  0  0  0  0  0  0  0  0  0
   -3.1495   -0.4803   -1.0623 C   0  0  0  0  0  0  0  0  0  0  0  0
   -3.9358   -0.8931   -2.2878 C   0  0  2  0  0  0  0  0  0  0  0  0
   -5.0466   -1.8614   -1.9648 C   0  0  0  0  0  0  0  0  0  0  0  0
   -5.5399   -3.3750   -3.9411 C   0  0  0  0  0  0  0  0  0  0  0  0
   -6.5666   -3.3715   -4.8522 C   0  0  0  0  0  0  0  0  0  0  0  0
    0.7077    3.7822   -0.3168 C   0  0  0  0  0  0  0  0  0  0  0  0
    3.7614    0.0039    2.5779 O   0  0  0  0  0  0  0  0  0  0  0  0
    3.9859    1.5576    0.9544 O   0  0  0  0  0  0  0  0  0  0  0  0
   -3.0800   -1.4779   -3.2694 O   0  0  0  0  0  0  0  0  0  0  0  0
    1.6891    2.8490   -0.4321 O   0  0  0  0  0  0  0  0  0  0  0  0
    2.3689    0.0280    0.8718 N   0  0  0  0  0  0  0  0  0  0  0  0
   -2.1310    0.5731   -1.3040 N   0  0  0  0  0  0  0  0  0  0  0  0
   -5.7944   -2.3373   -3.1212 N   0  0  0  0  0  0  0  0  0  0  0  0
   -7.3919   -2.3278   -4.5442 N   0  0  0  0  0  0  0  0  0  0  0  0
   -6.9230   -1.7004   -3.4958 N   0  0  0  0  0  0  0  0  0  0  0  0
   -0.4829    3.2686   -0.1749 N   0  0  0  0  0  0  0  0  0  0  0  0
    3.8512   -0.0223    5.1599 H   0  0  0  0  0  0  0  0  0  0  0  0
    5.5949    0.0360    5.2544 H   0  0  0  0  0  0  0  0  0  0  0  0
    4.8096   -1.2609    4.3852 H   0  0  0  0  0  0  0  0  0  0  0  0
    6.1124    0.9658    1.7174 H   0  0  0  0  0  0  0  0  0  0  0  0
    6.3274   -0.5923    2.4779 H   0  0  0  0  0  0  0  0  0  0  0  0
    6.9177    0.8527    3.2637 H   0  0  0  0  0  0  0  0  0  0  0  0
    5.2183    2.4903    4.2673 H   0  0  0  0  0  0  0  0  0  0  0  0
    3.5169    2.1113    4.1478 H   0  0  0  0  0  0  0  0  0  0  0  0
    4.4054    2.6009    2.7248 H   0  0  0  0  0  0  0  0  0  0  0  0
    1.9012   -0.6844    1.3557 H   0  0  0  0  0  0  0  0  0  0  0  0
    1.3030   -0.3782   -0.8672 H   0  0  0  0  0  0  0  0  0  0  0  0
    2.7166    0.6249   -1.0898 H   0  0  0  0  0  0  0  0  0  0  0  0
   -2.1282    1.3518    0.6128 H   0  0  0  0  0  0  0  0  0  0  0  0
   -1.0218    0.0240    0.3539 H   0  0  0  0  0  0  0  0  0  0  0  0
   -1.4835    0.2449   -1.9624 H   0  0  0  0  0  0  0  0  0  0  0  0
   -3.8399   -0.1147   -0.3311 H   0  0  0  0  0  0  0  0  0  0  0  0
   -2.6495   -1.3457   -0.6802 H   0  0  0  0  0  0  0  0  0  0  0  0
   -4.3829   -0.0126   -2.6998 H   0  0  0  0  0  0  0  0  0  0  0  0
   -3.5608   -2.1550   -3.7511 H   0  0  0  0  0  0  0  0  0  0  0  0
   -5.7315   -1.3740   -1.3027 H   0  0  0  0  0  0  0  0  0  0  0  0
   -4.6172   -2.7094   -1.4736 H   0  0  0  0  0  0  0  0  0  0  0  0
   -4.7386   -4.0363   -3.8941 H   0  0  0  0  0  0  0  0  0  0  0  0
   -6.6933   -4.0429   -5.6362 H   0  0  0  0  0  0  0  0  0  0  0  0
    0.8884    4.8061   -0.3396 H   0  0  0  0  0  0  0  0  0  0  0  0
  1  2  1  0  0  0  0
  1 26  1  0  0  0  0
  1 27  1  0  0  0  0
  1 28  1  0  0  0  0
  2  3  1  0  0  0  0
  2  4  1  0  0  0  0
  2 16  1  0  0  0  0
  3 29  1  0  0  0  0
  3 30  1  0  0  0  0
  3 31  1  0  0  0  0
  4 32  1  0  0  0  0
  4 33  1  0  0  0  0
  4 34  1  0  0  0  0
  5 16  1  0  0  0  0
  5 20  1  0  0  0  0
  5 17  2  0  0  0  0
  6 20  1  0  0  0  0
  6  7  1  0  0  0  0
  6 36  1  0  0  0  0
  6 37  1  0  0  0  0
  7 19  1  0  0  0  0
  7  8  2  0  0  0  0
  8  9  1  0  0  0  0
  8 25  1  0  0  0  0
  9 21  1  0  0  0  0
  9 38  1  0  0  0  0
  9 39  1  0  0  0  0
 10 21  1  0  0  0  0
 10 11  1  0  0  0  0
 10 41  1  0  0  0  0
 10 42  1  0  0  0  0
 11 18  1  0  0  0  0
 11 12  1  0  0  0  0
 11 43  1  6  0  0  0
 12 22  1  0  0  0  0
 12 45  1  0  0  0  0
 12 46  1  0  0  0  0
 13 22  1  0  0  0  0
 13 47  1  0  0  0  0
 13 14  2  0  0  0  0
 14 23  1  0  0  0  0
 14 48  1  0  0  0  0
 15 19  1  0  0  0  0
 15 49  1  0  0  0  0
 15 25  2  0  0  0  0
 18 44  1  0  0  0  0
 20 35  1  0  0  0  0
 21 40  1  0  0  0  0
 22 24  1  0  0  0  0
 23 24  2  0  0  0  0
M  END
>  <score>
0.42720478773117065

$$$$
Z3565944268
 OpenBabel08202115463D

 46 49  0  0  0  0  0  0  0  0999 V2000
    1.6684    2.4560   -0.8243 O   0  0  0  0  0  0  0  0  0  0  0  0
    2.0224    0.4602    0.2072 O   0  0  0  0  0  0  0  0  0  0  0  0
    4.1129    3.1330    3.6833 O   0  0  0  0  0  0  0  0  0  0  0  0
    5.4517    1.5380    0.8900 O   0  0  0  0  0  0  0  0  0  0  0  0
    1.2857    1.3696   -0.4742 C   0  0  0  0  0  0  0  0  0  0  0  0
    3.4626    0.5217    0.0492 C   0  0  0  0  0  0  0  0  0  0  0  0
    4.0715    1.4309    1.0976 C   0  0  1  0  0  0  0  0  0  0  0  0
    3.8477    0.8364    2.4971 C   0  0  0  0  0  0  0  0  0  0  0  0
    5.2146    1.0269    3.1679 C   0  0  2  0  0  0  0  0  0  0  0  0
    5.2920    2.3592    3.8614 C   0  0  0  0  0  0  0  0  0  0  0  0
    6.1868    0.9622    2.0124 C   0  0  0  0  0  0  0  0  0  0  0  0
   -0.0805    0.8728   -0.7518 C   0  0  0  0  0  0  0  0  0  0  0  0
   -1.0158    1.6466   -1.4210 C   0  0  0  0  0  0  0  0  0  0  0  0
   -2.2834    1.1485   -1.6564 C   0  0  0  0  0  0  0  0  0  0  0  0
   -2.6177   -0.1268   -1.2280 C   0  0  0  0  0  0  0  0  0  0  0  0
   -3.9753   -0.5927   -1.5158 C   0  0  0  0  0  0  0  0  0  0  0  0
   -5.6474   -1.7873   -1.8136 C   0  0  0  0  0  0  0  0  0  0  0  0
   -6.5294   -3.0114   -1.9202 C   0  0  0  0  0  0  0  0  0  0  0  0
   -5.8819   -4.3179   -2.2562 C   0  0  0  0  0  0  0  0  0  0  0  0
   -6.7566   -3.6321   -3.2630 C   0  0  0  0  0  0  0  0  0  0  0  0
   -1.6849   -0.8982   -0.5608 C   0  0  0  0  0  0  0  0  0  0  0  0
   -0.4136   -0.3987   -0.3246 C   0  0  0  0  0  0  0  0  0  0  0  0
   -4.3444   -1.8601   -1.4885 N   0  0  0  0  0  0  0  0  0  0  0  0
   -6.1125   -0.5719   -2.0354 N   0  0  0  0  0  0  0  0  0  0  0  0
   -5.0029    0.1885   -1.8386 N   0  0  0  0  0  0  0  0  0  0  0  0
    3.6944    0.9015   -0.9240 H   0  0  0  0  0  0  0  0  0  0  0  0
    3.8710   -0.4616    0.1554 H   0  0  0  0  0  0  0  0  0  0  0  0
    3.6190    2.3986    1.0375 H   0  0  0  0  0  0  0  0  0  0  0  0
    3.5879   -0.2000    2.4388 H   0  0  0  0  0  0  0  0  0  0  0  0
    3.0824    1.3674    3.0237 H   0  0  0  0  0  0  0  0  0  0  0  0
    5.4066    0.2454    3.8732 H   0  0  0  0  0  0  0  0  0  0  0  0
    6.1234    2.9043    3.4658 H   0  0  0  0  0  0  0  0  0  0  0  0
    5.4390    2.1934    4.9082 H   0  0  0  0  0  0  0  0  0  0  0  0
    4.1718    3.6218    2.8592 H   0  0  0  0  0  0  0  0  0  0  0  0
    6.4623   -0.0507    1.8052 H   0  0  0  0  0  0  0  0  0  0  0  0
    7.0654    1.5352    2.2238 H   0  0  0  0  0  0  0  0  0  0  0  0
   -0.7638    2.6018   -1.7460 H   0  0  0  0  0  0  0  0  0  0  0  0
   -2.9865    1.7305   -2.1550 H   0  0  0  0  0  0  0  0  0  0  0  0
   -7.3510   -3.0549   -1.2361 H   0  0  0  0  0  0  0  0  0  0  0  0
   -6.2153   -5.2176   -1.7826 H   0  0  0  0  0  0  0  0  0  0  0  0
   -4.8244   -4.3666   -2.4113 H   0  0  0  0  0  0  0  0  0  0  0  0
   -6.3231   -3.1914   -4.1364 H   0  0  0  0  0  0  0  0  0  0  0  0
   -7.7140   -4.0425   -3.5077 H   0  0  0  0  0  0  0  0  0  0  0  0
   -4.9655    1.1643   -1.9218 H   0  0  0  0  0  0  0  0  0  0  0  0
   -1.9369   -1.8534   -0.2358 H   0  0  0  0  0  0  0  0  0  0  0  0
    0.2895   -0.9807    0.1739 H   0  0  0  0  0  0  0  0  0  0  0  0
  3 34  1  0  0  0  0
  5  2  1  0  0  0  0
  5 12  1  0  0  0  0
  5  1  2  0  0  0  0
  6  2  1  0  0  0  0
  6  7  1  0  0  0  0
  6 26  1  0  0  0  0
  6 27  1  0  0  0  0
  7  8  1  0  0  0  0
  7  4  1  0  0  0  0
  7 28  1  6  0  0  0
  8  9  1  0  0  0  0
  8 29  1  0  0  0  0
  8 30  1  0  0  0  0
  9 10  1  0  0  0  0
  9 11  1  0  0  0  0
  9 31  1  1  0  0  0
 10  3  1  0  0  0  0
 10 32  1  0  0  0  0
 10 33  1  0  0  0  0
 11  4  1  0  0  0  0
 11 35  1  0  0  0  0
 11 36  1  0  0  0  0
 12 22  1  0  0  0  0
 12 13  2  0  0  0  0
 13 14  1  0  0  0  0
 13 37  1  0  0  0  0
 14 38  1  0  0  0  0
 14 15  2  0  0  0  0
 15 16  1  0  0  0  0
 15 21  1  0  0  0  0
 16 25  1  0  0  0  0
 16 23  2  0  0  0  0
 17 23  1  0  0  0  0
 17 18  1  0  0  0  0
 17 24  2  0  0  0  0
 18 19  1  0  0  0  0
 18 20  1  0  0  0  0
 18 39  1  0  0  0  0
 19 20  1  0  0  0  0
 19 40  1  0  0  0  0
 19 41  1  0  0  0  0
 20 42  1  0  0  0  0
 20 43  1  0  0  0  0
 21 45  1  0  0  0  0
 21 22  2  0  0  0  0
 22 46  1  0  0  0  0
 24 25  1  0  0  0  0
 25 44  1  0  0  0  0
M  END
>  <score>
0.42742186784744263

$$$$
PV-003999928077
 OpenBabel08202115463D

 48 50  0  0  0  0  0  0  0  0999 V2000
   -8.2492   -2.8758   -4.1370 C   0  0  0  0  0  0  0  0  0  0  0  0
   -6.5919   -1.4163   -3.2129 C   0  0  0  0  0  0  0  0  0  0  0  0
   -6.2288   -0.1107   -2.9211 C   0  0  0  0  0  0  0  0  0  0  0  0
   -4.9761    0.1586   -2.4028 C   0  0  0  0  0  0  0  0  0  0  0  0
   -4.0849   -0.8771   -2.1697 C   0  0  0  0  0  0  0  0  0  0  0  0
   -2.7646   -0.5815   -1.6159 C   0  0  0  0  0  0  0  0  0  0  0  0
   -0.7776    0.3734   -0.7421 C   0  0  0  0  0  0  0  0  0  0  0  0
    1.5156    0.8348    0.1034 C   0  0  0  0  0  0  0  0  0  0  0  0
    2.3947    1.9959    0.4840 C   0  0  0  0  0  0  0  0  0  0  0  0
    3.4572    1.5631    1.4898 C   0  0  0  0  0  0  0  0  0  0  0  0
    4.9372    2.5215    3.1284 C   0  0  0  0  0  0  0  0  0  0  0  0
    2.7749    0.8208    2.6795 C   0  0  0  0  0  0  0  0  0  0  0  0
    3.8157    0.2243    3.6278 C   0  0  0  0  0  0  0  0  0  0  0  0
    4.8066   -0.6828    2.9076 C   0  0  0  0  0  0  0  0  0  0  0  0
    5.4766    0.0318    1.7576 C   0  0  0  0  0  0  0  0  0  0  0  0
    4.4574    0.6203    0.8040 C   0  0  0  0  0  0  0  0  0  0  0  0
   -4.4471   -2.1788   -2.4607 C   0  0  0  0  0  0  0  0  0  0  0  0
   -5.7034   -2.4492   -2.9806 C   0  0  0  0  0  0  0  0  0  0  0  0
   -7.8526   -1.5582   -3.7258 O   0  0  0  0  0  0  0  0  0  0  0  0
    1.8700   -0.3296    0.1157 O   0  0  0  0  0  0  0  0  0  0  0  0
    4.1444    2.7096    1.9777 O   0  0  0  0  0  0  0  0  0  0  0  0
   -1.8704   -1.4823   -1.3385 N   0  0  0  0  0  0  0  0  0  0  0  0
   -0.7065   -0.9201   -0.8218 N   0  0  0  0  0  0  0  0  0  0  0  0
    0.2532    1.2042   -0.2670 N   0  0  0  0  0  0  0  0  0  0  0  0
   -2.2733    1.0426   -1.2754 S   0  0  0  0  0  0  0  0  0  0  0  0
   -9.2781   -2.8638   -4.4308 H   0  0  0  0  0  0  0  0  0  0  0  0
   -8.1191   -3.5577   -3.3227 H   0  0  0  0  0  0  0  0  0  0  0  0
   -7.6461   -3.1878   -4.9640 H   0  0  0  0  0  0  0  0  0  0  0  0
   -6.8988    0.6661   -3.0922 H   0  0  0  0  0  0  0  0  0  0  0  0
   -4.7022    1.1386   -2.1876 H   0  0  0  0  0  0  0  0  0  0  0  0
    0.0416    2.1583   -0.1931 H   0  0  0  0  0  0  0  0  0  0  0  0
    1.7913    2.7646    0.9199 H   0  0  0  0  0  0  0  0  0  0  0  0
    2.8758    2.3742   -0.3937 H   0  0  0  0  0  0  0  0  0  0  0  0
    5.3753    3.4541    3.4168 H   0  0  0  0  0  0  0  0  0  0  0  0
    5.7117    1.8145    2.9159 H   0  0  0  0  0  0  0  0  0  0  0  0
    4.3262    2.1531    3.9259 H   0  0  0  0  0  0  0  0  0  0  0  0
    2.1618    0.0331    2.2940 H   0  0  0  0  0  0  0  0  0  0  0  0
    2.1663    1.5146    3.2210 H   0  0  0  0  0  0  0  0  0  0  0  0
    3.3096   -0.3469    4.3778 H   0  0  0  0  0  0  0  0  0  0  0  0
    4.3558    1.0233    4.0912 H   0  0  0  0  0  0  0  0  0  0  0  0
    5.5552   -1.0009    3.6027 H   0  0  0  0  0  0  0  0  0  0  0  0
    4.2845   -1.5368    2.5294 H   0  0  0  0  0  0  0  0  0  0  0  0
    6.0900   -0.6647    1.2251 H   0  0  0  0  0  0  0  0  0  0  0  0
    6.0863    0.8207    2.1458 H   0  0  0  0  0  0  0  0  0  0  0  0
    3.9125   -0.1819    0.3518 H   0  0  0  0  0  0  0  0  0  0  0  0
    4.9779    1.1696    0.0474 H   0  0  0  0  0  0  0  0  0  0  0  0
   -3.7770   -2.9555   -2.2896 H   0  0  0  0  0  0  0  0  0  0  0  0
   -5.9773   -3.4291   -3.1957 H   0  0  0  0  0  0  0  0  0  0  0  0
  1 19  1  0  0  0  0
  1 26  1  0  0  0  0
  1 27  1  0  0  0  0
  1 28  1  0  0  0  0
  2 19  1  0  0  0  0
  2 18  1  0  0  0  0
  2  3  2  0  0  0  0
  3  4  1  0  0  0  0
  3 29  1  0  0  0  0
  4 30  1  0  0  0  0
  4  5  2  0  0  0  0
  5  6  1  0  0  0  0
  5 17  1  0  0  0  0
  6 25  1  0  0  0  0
  6 22  2  0  0  0  0
  7 24  1  0  0  0  0
  7 25  1  0  0  0  0
  7 23  2  0  0  0  0
  8 24  1  0  0  0  0
  8  9  1  0  0  0  0
  8 20  2  0  0  0  0
  9 10  1  0  0  0  0
  9 32  1  0  0  0  0
  9 33  1  0  0  0  0
 10 21  1  0  0  0  0
 10 12  1  0  0  0  0
 10 16  1  0  0  0  0
 11 21  1  0  0  0  0
 11 34  1  0  0  0  0
 11 35  1  0  0  0  0
 11 36  1  0  0  0  0
 12 13  1  0  0  0  0
 12 37  1  0  0  0  0
 12 38  1  0  0  0  0
 13 14  1  0  0  0  0
 13 39  1  0  0  0  0
 13 40  1  0  0  0  0
 14 15  1  0  0  0  0
 14 41  1  0  0  0  0
 14 42  1  0  0  0  0
 15 16  1  0  0  0  0
 15 43  1  0  0  0  0
 15 44  1  0  0  0  0
 16 45  1  0  0  0  0
 16 46  1  0  0  0  0
 17 47  1  0  0  0  0
 17 18  2  0  0  0  0
 18 48  1  0  0  0  0
 22 23  1  0  0  0  0
 24 31  1  0  0  0  0
M  END
>  <score>
0.42751616239547729

$$$$
Z4391622742
 OpenBabel08202115463D

 41 42  0  0  0  0  0  0  0  0999 V2000
   -0.2821    2.4513   -0.1820 C   0  0  0  0  0  0  0  0  0  0  0  0
    0.0864    1.1808    0.5666 C   0  0  2  0  0  0  0  0  0  0  0  0
   -1.6365   -0.1133   -0.6896 C   0  0  0  0  0  0  0  0  0  0  0  0
   -1.9852   -1.3901   -1.4433 C   0  0  0  0  0  0  0  0  0  0  0  0
   -3.4537   -1.5102   -1.7518 C   0  0  0  0  0  0  0  0  0  0  0  0
   -5.6491   -2.1041   -2.4236 C   0  0  0  0  0  0  0  0  0  0  0  0
   -6.9082   -2.7234   -2.9560 C   0  0  0  0  0  0  0  0  0  0  0  0
    1.5467    1.1867    0.9621 C   0  0  0  0  0  0  0  0  0  0  0  0
    1.9016    1.1867    2.2979 C   0  0  0  0  0  0  0  0  0  0  0  0
    3.2397    1.1867    2.6596 C   0  0  0  0  0  0  0  0  0  0  0  0
    4.2190    1.1921    1.6845 C   0  0  0  0  0  0  0  0  0  0  0  0
    6.2970   -0.5087    2.5069 C   0  0  0  0  0  0  0  0  0  0  0  0
    3.8634    1.1921    0.3447 C   0  0  0  0  0  0  0  0  0  0  0  0
    2.5291    1.1921   -0.0159 C   0  0  0  0  0  0  0  0  0  0  0  0
   -0.2044    0.0172   -0.3190 N   0  0  0  0  0  0  0  0  0  0  0  0
   -4.3295   -0.6138   -1.4143 N   0  0  0  0  0  0  0  0  0  0  0  0
   -5.6196   -0.9625   -1.8040 N   0  0  0  0  0  0  0  0  0  0  0  0
   -8.0241   -1.9002   -2.6499 O   0  0  0  0  0  0  0  0  0  0  0  0
    6.0576    1.9431    3.3571 O   0  0  0  0  0  0  0  0  0  0  0  0
    6.6938    1.5920    1.0079 O   0  0  0  0  0  0  0  0  0  0  0  0
   -4.1048   -2.8672   -2.5909 S   0  0  0  0  0  0  0  0  0  0  0  0
    5.9191    1.1990    2.1438 S   0  0  0  0  0  0  0  0  0  0  0  0
    4.7853    1.1921   -0.6371 F   0  0  0  0  0  0  0  0  0  0  0  0
   -1.3124    2.4113   -0.4680 H   0  0  0  0  0  0  0  0  0  0  0  0
    0.3276    2.5391   -1.0569 H   0  0  0  0  0  0  0  0  0  0  0  0
   -0.1208    3.2980    0.4521 H   0  0  0  0  0  0  0  0  0  0  0  0
   -0.5137    1.1119    1.4498 H   0  0  0  0  0  0  0  0  0  0  0  0
    0.0697   -0.8007    0.1462 H   0  0  0  0  0  0  0  0  0  0  0  0
   -1.8980    0.7203   -1.3075 H   0  0  0  0  0  0  0  0  0  0  0  0
   -2.2168   -0.0878    0.2090 H   0  0  0  0  0  0  0  0  0  0  0  0
   -1.6929   -2.2286   -0.8463 H   0  0  0  0  0  0  0  0  0  0  0  0
   -1.4416   -1.4009   -2.3648 H   0  0  0  0  0  0  0  0  0  0  0  0
   -7.0454   -3.6859   -2.5092 H   0  0  0  0  0  0  0  0  0  0  0  0
   -6.8282   -2.8306   -4.0176 H   0  0  0  0  0  0  0  0  0  0  0  0
   -8.3188   -2.0800   -1.7541 H   0  0  0  0  0  0  0  0  0  0  0  0
    1.1646    1.1867    3.0316 H   0  0  0  0  0  0  0  0  0  0  0  0
    3.5067    1.1827    3.6648 H   0  0  0  0  0  0  0  0  0  0  0  0
    6.2061   -1.0922    1.6146 H   0  0  0  0  0  0  0  0  0  0  0  0
    5.6138   -0.8760    3.2440 H   0  0  0  0  0  0  0  0  0  0  0  0
    7.2974   -0.5809    2.8797 H   0  0  0  0  0  0  0  0  0  0  0  0
    2.2621    1.1962   -1.0211 H   0  0  0  0  0  0  0  0  0  0  0  0
  1  2  1  0  0  0  0
  1 24  1  0  0  0  0
  1 25  1  0  0  0  0
  1 26  1  0  0  0  0
  2 15  1  0  0  0  0
  2  8  1  0  0  0  0
  2 27  1  1  0  0  0
  3 15  1  0  0  0  0
  3  4  1  0  0  0  0
  3 29  1  0  0  0  0
  3 30  1  0  0  0  0
  4  5  1  0  0  0  0
  4 31  1  0  0  0  0
  4 32  1  0  0  0  0
  5 21  1  0  0  0  0
  5 16  2  0  0  0  0
  6  7  1  0  0  0  0
  6 21  1  0  0  0  0
  6 17  2  0  0  0  0
  7 18  1  0  0  0  0
  7 33  1  0  0  0  0
  7 34  1  0  0  0  0
  8 14  1  0  0  0  0
  8  9  2  0  0  0  0
  9 10  1  0  0  0  0
  9 36  1  0  0  0  0
 10 37  1  0  0  0  0
 10 11  2  0  0  0  0
 11 13  1  0  0  0  0
 12 38  1  0  0  0  0
 12 39  1  0  0  0  0
 12 40  1  0  0  0  0
 13 23  1  0  0  0  0
 13 14  2  0  0  0  0
 14 41  1  0  0  0  0
 15 28  1  0  0  0  0
 16 17  1  0  0  0  0
 18 35  1  0  0  0  0
 22 11  1  0  0  0  0
 22 12  1  0  0  0  0
 22 19  2  0  0  0  0
 22 20  2  0  0  0  0
M  END
>  <score>
0.42754751443862915

$$$$
Z4879751852
 OpenBabel08202115463D

 55 57  0  0  0  0  0  0  0  0999 V2000
    0.4895    2.2957   -0.2671 O   0  0  0  0  0  0  0  0  0  0  0  0
    5.8805    1.8583    2.8704 O   0  0  0  0  0  0  0  0  0  0  0  0
   -6.8344   -1.1608   -3.9229 O   0  0  0  0  0  0  0  0  0  0  0  0
    0.9563    1.2458    0.1446 C   0  0  0  0  0  0  0  0  0  0  0  0
    2.3303    1.2004    0.7617 C   0  0  0  0  0  0  0  0  0  0  0  0
    2.4471    3.5401    1.2446 C   0  0  0  0  0  0  0  0  0  0  0  0
    2.4294    3.2644    2.7406 C   0  0  0  0  0  0  0  0  0  0  0  0
    3.8317    3.0373    3.2593 C   0  0  0  0  0  0  0  0  0  0  0  0
    4.5158    1.9523    2.4594 C   0  0  1  0  0  0  0  0  0  0  0  0
    6.0008    1.2872    4.1665 C   0  0  0  0  0  0  0  0  0  0  0  0
    7.4911    1.1211    4.5244 C   0  0  0  0  0  0  0  0  0  0  0  0
    4.4642    2.2613    0.9724 C   0  0  0  0  0  0  0  0  0  0  0  0
   -1.0006   -0.1216   -0.5607 C   0  0  0  0  0  0  0  0  0  0  0  0
   -1.7290   -1.2866   -0.6051 C   0  0  0  0  0  0  0  0  0  0  0  0
   -3.9631   -1.9068   -1.6421 C   0  0  0  0  0  0  0  0  0  0  0  0
   -4.2338   -1.9528   -3.1256 C   0  0  0  0  0  0  0  0  0  0  0  0
   -5.2493   -4.2658   -3.5412 C   0  0  0  0  0  0  0  0  0  0  0  0
   -6.6159   -4.7412   -4.0112 C   0  0  0  0  0  0  0  0  0  0  0  0
   -7.4444   -3.4890   -4.2279 C   0  0  0  0  0  0  0  0  0  0  0  0
   -6.5320   -2.3419   -3.8792 C   0  0  0  0  0  0  0  0  0  0  0  0
   -1.7667    0.8189   -1.2627 C   0  0  0  0  0  0  0  0  0  0  0  0
    3.0875    2.4454    0.5229 N   0  0  0  0  0  0  0  0  0  0  0  0
    0.2543    0.0840    0.0607 N   0  0  0  0  0  0  0  0  0  0  0  0
   -2.8582   -1.0166   -1.3022 N   0  0  0  0  0  0  0  0  0  0  0  0
   -5.3495   -2.8177   -3.5175 N   0  0  0  0  0  0  0  0  0  0  0  0
   -2.9033    0.2774   -1.7106 N   0  0  0  0  0  0  0  0  0  0  0  0
    7.9599    2.3849    4.6798 F   0  0  0  0  0  0  0  0  0  0  0  0
    8.0692    0.4583    3.5184 F   0  0  0  0  0  0  0  0  0  0  0  0
    2.8718    0.3805    0.3380 H   0  0  0  0  0  0  0  0  0  0  0  0
    2.2298    1.0547    1.8170 H   0  0  0  0  0  0  0  0  0  0  0  0
    2.9882    4.4448    1.0612 H   0  0  0  0  0  0  0  0  0  0  0  0
    1.4413    3.6486    0.8962 H   0  0  0  0  0  0  0  0  0  0  0  0
    1.9993    4.1031    3.2471 H   0  0  0  0  0  0  0  0  0  0  0  0
    1.8395    2.3920    2.9299 H   0  0  0  0  0  0  0  0  0  0  0  0
    3.7847    2.7422    4.2868 H   0  0  0  0  0  0  0  0  0  0  0  0
    4.3913    3.9453    3.1737 H   0  0  0  0  0  0  0  0  0  0  0  0
    4.0231    1.0200    2.6407 H   0  0  0  0  0  0  0  0  0  0  0  0
    5.5232    0.3297    4.1790 H   0  0  0  0  0  0  0  0  0  0  0  0
    5.5324    1.9293    4.8829 H   0  0  0  0  0  0  0  0  0  0  0  0
    7.5584    0.5726    5.4406 H   0  0  0  0  0  0  0  0  0  0  0  0
    5.0170    3.1575    0.7822 H   0  0  0  0  0  0  0  0  0  0  0  0
    4.9031    1.4493    0.4312 H   0  0  0  0  0  0  0  0  0  0  0  0
    0.6648   -0.7016    0.4787 H   0  0  0  0  0  0  0  0  0  0  0  0
   -1.4639   -2.1998   -0.1840 H   0  0  0  0  0  0  0  0  0  0  0  0
   -4.8454   -1.5642   -1.1431 H   0  0  0  0  0  0  0  0  0  0  0  0
   -3.7236   -2.8942   -1.3065 H   0  0  0  0  0  0  0  0  0  0  0  0
   -3.3503   -2.3064   -3.6147 H   0  0  0  0  0  0  0  0  0  0  0  0
   -4.4511   -0.9585   -3.4557 H   0  0  0  0  0  0  0  0  0  0  0  0
   -4.4861   -4.5798   -4.2223 H   0  0  0  0  0  0  0  0  0  0  0  0
   -5.0339   -4.6448   -2.5640 H   0  0  0  0  0  0  0  0  0  0  0  0
   -7.0692   -5.3623   -3.2671 H   0  0  0  0  0  0  0  0  0  0  0  0
   -6.5242   -5.2887   -4.9260 H   0  0  0  0  0  0  0  0  0  0  0  0
   -8.3026   -3.4925   -3.5888 H   0  0  0  0  0  0  0  0  0  0  0  0
   -7.7592   -3.4202   -5.2482 H   0  0  0  0  0  0  0  0  0  0  0  0
   -1.4872    1.8090   -1.4150 H   0  0  0  0  0  0  0  0  0  0  0  0
  4  5  1  0  0  0  0
  4 23  1  0  0  0  0
  4  1  2  0  0  0  0
  5 22  1  0  0  0  0
  5 29  1  0  0  0  0
  5 30  1  0  0  0  0
  6 22  1  0  0  0  0
  6  7  1  0  0  0  0
  6 31  1  0  0  0  0
  6 32  1  0  0  0  0
  7  8  1  0  0  0  0
  7 33  1  0  0  0  0
  7 34  1  0  0  0  0
  8  9  1  0  0  0  0
  8 35  1  0  0  0  0
  8 36  1  0  0  0  0
  9  2  1  0  0  0  0
  9 12  1  0  0  0  0
  9 37  1  1  0  0  0
 10  2  1  0  0  0  0
 10 11  1  0  0  0  0
 10 38  1  0  0  0  0
 10 39  1  0  0  0  0
 11 27  1  0  0  0  0
 11 28  1  0  0  0  0
 11 40  1  0  0  0  0
 12 22  1  0  0  0  0
 12 41  1  0  0  0  0
 12 42  1  0  0  0  0
 13 23  1  0  0  0  0
 13 21  1  0  0  0  0
 13 14  2  0  0  0  0
 14 24  1  0  0  0  0
 14 44  1  0  0  0  0
 15 24  1  0  0  0  0
 15 16  1  0  0  0  0
 15 45  1  0  0  0  0
 15 46  1  0  0  0  0
 16 25  1  0  0  0  0
 16 47  1  0  0  0  0
 16 48  1  0  0  0  0
 17 25  1  0  0  0  0
 17 18  1  0  0  0  0
 17 49  1  0  0  0  0
 17 50  1  0  0  0  0
 18 19  1  0  0  0  0
 18 51  1  0  0  0  0
 18 52  1  0  0  0  0
 19 20  1  0  0  0  0
 19 53  1  0  0  0  0
 19 54  1  0  0  0  0
 20 25  1  0  0  0  0
 20  3  2  0  0  0  0
 21 55  1  0  0  0  0
 21 26  2  0  0  0  0
 23 43  1  0  0  0  0
 24 26  1  0  0  0  0
M  END
>  <score>
0.42759013175964355

$$$$
Z3641705594
 OpenBabel08202115463D

 46 49  0  0  0  0  0  0  0  0999 V2000
   -6.9941   -2.9469   -4.5544 C   0  0  0  0  0  0  0  0  0  0  0  0
   -5.2076   -2.8031   -2.9685 C   0  0  0  0  0  0  0  0  0  0  0  0
   -4.5607   -3.4613   -1.9776 C   0  0  0  0  0  0  0  0  0  0  0  0
   -3.5731   -2.7977   -1.2463 C   0  0  0  0  0  0  0  0  0  0  0  0
   -2.0415   -2.1404    0.1080 C   0  0  0  0  0  0  0  0  0  0  0  0
   -2.2856   -1.0453   -0.6920 C   0  0  0  0  0  0  0  0  0  0  0  0
   -1.6721    0.3307   -0.7090 C   0  0  0  0  0  0  0  0  0  0  0  0
    0.1942    1.7098    0.1496 C   0  0  0  0  0  0  0  0  0  0  0  0
    1.6362    1.6868    0.5857 C   0  0  0  0  0  0  0  0  0  0  0  0
    2.6411    1.6172   -0.3630 C   0  0  0  0  0  0  0  0  0  0  0  0
    3.9880    1.5777   -0.0136 C   0  0  0  0  0  0  0  0  0  0  0  0
    4.2675    1.6270    1.3202 C   0  0  0  0  0  0  0  0  0  0  0  0
    5.2483    1.6606    3.3226 C   0  0  0  0  0  0  0  0  0  0  0  0
    5.8960    2.8843    3.9121 C   0  0  0  0  0  0  0  0  0  0  0  0
    5.8115    0.4262    3.9811 C   0  0  0  0  0  0  0  0  0  0  0  0
    3.2778    1.7001    2.2818 C   0  0  0  0  0  0  0  0  0  0  0  0
    1.9544    1.7362    1.9576 C   0  0  0  0  0  0  0  0  0  0  0  0
   -3.9609   -0.8007   -2.5517 C   0  0  0  0  0  0  0  0  0  0  0  0
   -4.9030   -1.4513   -3.2495 C   0  0  0  0  0  0  0  0  0  0  0  0
   -6.1288   -3.5886   -3.6047 O   0  0  0  0  0  0  0  0  0  0  0  0
    5.4969    1.6134    1.9198 O   0  0  0  0  0  0  0  0  0  0  0  0
    3.8474    1.7153    3.5278 O   0  0  0  0  0  0  0  0  0  0  0  0
   -2.8245   -3.2144   -0.2284 N   0  0  0  0  0  0  0  0  0  0  0  0
   -0.3399    0.3523   -0.0723 N   0  0  0  0  0  0  0  0  0  0  0  0
   -3.2835   -1.4652   -1.5575 N   0  0  0  0  0  0  0  0  0  0  0  0
   -6.4169   -2.3055   -5.1871 H   0  0  0  0  0  0  0  0  0  0  0  0
   -7.7277   -2.3676   -4.0336 H   0  0  0  0  0  0  0  0  0  0  0  0
   -7.4825   -3.6896   -5.1501 H   0  0  0  0  0  0  0  0  0  0  0  0
   -4.7969   -4.4512   -1.7633 H   0  0  0  0  0  0  0  0  0  0  0  0
   -1.3434   -2.1509    0.8788 H   0  0  0  0  0  0  0  0  0  0  0  0
   -2.3171    1.0025   -0.1822 H   0  0  0  0  0  0  0  0  0  0  0  0
   -1.5743    0.6522   -1.7248 H   0  0  0  0  0  0  0  0  0  0  0  0
    0.2854   -0.1349   -0.6486 H   0  0  0  0  0  0  0  0  0  0  0  0
   -0.3880    2.1899    0.9082 H   0  0  0  0  0  0  0  0  0  0  0  0
    0.1186    2.2637   -0.7628 H   0  0  0  0  0  0  0  0  0  0  0  0
    2.3817    1.5938   -1.3699 H   0  0  0  0  0  0  0  0  0  0  0  0
    4.7393    1.5140   -0.7299 H   0  0  0  0  0  0  0  0  0  0  0  0
    5.5598    3.0162    4.9193 H   0  0  0  0  0  0  0  0  0  0  0  0
    5.6296    3.7430    3.3320 H   0  0  0  0  0  0  0  0  0  0  0  0
    6.9592    2.7637    3.9041 H   0  0  0  0  0  0  0  0  0  0  0  0
    5.4387   -0.4452    3.4845 H   0  0  0  0  0  0  0  0  0  0  0  0
    5.5158    0.4043    5.0092 H   0  0  0  0  0  0  0  0  0  0  0  0
    6.8794    0.4436    3.9169 H   0  0  0  0  0  0  0  0  0  0  0  0
    1.2156    1.7972    2.6871 H   0  0  0  0  0  0  0  0  0  0  0  0
   -3.7452    0.1950   -2.7604 H   0  0  0  0  0  0  0  0  0  0  0  0
   -5.4159   -0.9556   -4.0064 H   0  0  0  0  0  0  0  0  0  0  0  0
  1 20  1  0  0  0  0
  1 26  1  0  0  0  0
  1 27  1  0  0  0  0
  1 28  1  0  0  0  0
  2 20  1  0  0  0  0
  2 19  1  0  0  0  0
  2  3  2  0  0  0  0
  3  4  1  0  0  0  0
  3 29  1  0  0  0  0
  4 25  1  0  0  0  0
  4 23  2  0  0  0  0
  5 23  1  0  0  0  0
  5 30  1  0  0  0  0
  5  6  2  0  0  0  0
  6  7  1  0  0  0  0
  6 25  1  0  0  0  0
  7 24  1  0  0  0  0
  7 31  1  0  0  0  0
  7 32  1  0  0  0  0
  8 24  1  0  0  0  0
  8  9  1  0  0  0  0
  8 34  1  0  0  0  0
  8 35  1  0  0  0  0
  9 17  1  0  0  0  0
  9 10  2  0  0  0  0
 10 11  1  0  0  0  0
 10 36  1  0  0  0  0
 11 37  1  0  0  0  0
 11 12  2  0  0  0  0
 12 21  1  0  0  0  0
 12 16  1  0  0  0  0
 13 21  1  0  0  0  0
 13 14  1  0  0  0  0
 13 15  1  0  0  0  0
 13 22  1  0  0  0  0
 14 38  1  0  0  0  0
 14 39  1  0  0  0  0
 14 40  1  0  0  0  0
 15 41  1  0  0  0  0
 15 42  1  0  0  0  0
 15 43  1  0  0  0  0
 16 22  1  0  0  0  0
 16 17  2  0  0  0  0
 17 44  1  0  0  0  0
 18 25  1  0  0  0  0
 18 45  1  0  0  0  0
 18 19  2  0  0  0  0
 19 46  1  0  0  0  0
 24 33  1  0  0  0  0
M  END
>  <score>
0.42759692668914795

$$$$
PV-003924818970
 OpenBabel08202115463D

 43 44  0  0  0  0  0  0  0  0999 V2000
   -3.2152    0.4385   -0.3462 C   0  0  0  0  0  0  0  0  0  0  0  0
   -1.9914   -0.3218   -0.8307 C   0  0  1  0  0  0  0  0  0  0  0  0
   -2.0956   -0.6016   -2.3211 C   0  0  0  0  0  0  0  0  0  0  0  0
   -3.3125   -1.4090   -2.6858 C   0  0  0  0  0  0  0  0  0  0  0  0
   -3.1879   -2.7583   -2.9780 C   0  0  0  0  0  0  0  0  0  0  0  0
   -4.3048   -3.4980   -3.3180 C   0  0  0  0  0  0  0  0  0  0  0  0
   -5.5506   -2.8916   -3.3616 C   0  0  0  0  0  0  0  0  0  0  0  0
   -5.6750   -1.5463   -3.0704 C   0  0  0  0  0  0  0  0  0  0  0  0
   -4.5547   -0.8046   -2.7294 C   0  0  0  0  0  0  0  0  0  0  0  0
   -0.7245    0.4069   -0.4919 C   0  0  0  0  0  0  0  0  0  0  0  0
    1.2734    0.7220    0.0295 C   0  0  0  0  0  0  0  0  0  0  0  0
    2.7014    0.7008    0.5013 C   0  0  0  0  0  0  0  0  0  0  0  0
    2.9101    1.0750    1.9484 C   0  0  0  0  0  0  0  0  0  0  0  0
    4.8238   -0.4438    2.2600 C   0  0  0  0  0  0  0  0  0  0  0  0
    4.6110    1.5751    3.6664 C   0  0  0  0  0  0  0  0  0  0  0  0
    4.6180    3.1049    3.6331 C   0  0  0  0  0  0  0  0  0  0  0  0
   -6.9497   -3.8189   -3.7807 Cl  0  0  0  0  0  0  0  0  0  0  0  0
   -0.6419    1.7103   -0.4542 N   0  0  0  0  0  0  0  0  0  0  0  0
    4.3111    0.9302    2.3701 N   0  0  0  0  0  0  0  0  0  0  0  0
    0.4502   -0.2552   -0.1945 N   0  0  0  0  0  0  0  0  0  0  0  0
    0.7017    1.9340   -0.0929 O   0  0  0  0  0  0  0  0  0  0  0  0
    4.6126    3.6206    4.8635 F   0  0  0  0  0  0  0  0  0  0  0  0
    3.5307    3.5607    3.0088 F   0  0  0  0  0  0  0  0  0  0  0  0
    5.6735    3.5891    2.9969 F   0  0  0  0  0  0  0  0  0  0  0  0
   -4.0999   -0.0987   -0.6176 H   0  0  0  0  0  0  0  0  0  0  0  0
   -3.2343    1.4082   -0.7980 H   0  0  0  0  0  0  0  0  0  0  0  0
   -3.1729    0.5410    0.7180 H   0  0  0  0  0  0  0  0  0  0  0  0
   -1.9713   -1.2636   -0.3233 H   0  0  0  0  0  0  0  0  0  0  0  0
   -1.2242   -1.1414   -2.6280 H   0  0  0  0  0  0  0  0  0  0  0  0
   -2.1384    0.3327   -2.8409 H   0  0  0  0  0  0  0  0  0  0  0  0
   -2.2538   -3.2141   -2.9413 H   0  0  0  0  0  0  0  0  0  0  0  0
   -4.2106   -4.5095   -3.5411 H   0  0  0  0  0  0  0  0  0  0  0  0
   -6.6091   -1.0904   -3.1071 H   0  0  0  0  0  0  0  0  0  0  0  0
   -4.6488    0.2068   -2.5063 H   0  0  0  0  0  0  0  0  0  0  0  0
    3.2582    1.3880   -0.1009 H   0  0  0  0  0  0  0  0  0  0  0  0
    3.0817   -0.2890    0.3582 H   0  0  0  0  0  0  0  0  0  0  0  0
    2.3009    0.4410    2.5581 H   0  0  0  0  0  0  0  0  0  0  0  0
    2.6141    2.0941    2.0855 H   0  0  0  0  0  0  0  0  0  0  0  0
    4.3836   -1.0515    3.0227 H   0  0  0  0  0  0  0  0  0  0  0  0
    5.8872   -0.4380    2.3785 H   0  0  0  0  0  0  0  0  0  0  0  0
    4.5738   -0.8416    1.2987 H   0  0  0  0  0  0  0  0  0  0  0  0
    5.5766    1.2444    3.9875 H   0  0  0  0  0  0  0  0  0  0  0  0
    3.8723    1.2607    4.3737 H   0  0  0  0  0  0  0  0  0  0  0  0
  1  2  1  0  0  0  0
  1 25  1  0  0  0  0
  1 26  1  0  0  0  0
  1 27  1  0  0  0  0
  2  3  1  0  0  0  0
  2 10  1  0  0  0  0
  2 28  1  1  0  0  0
  3  4  1  0  0  0  0
  3 29  1  0  0  0  0
  3 30  1  0  0  0  0
  4  9  1  0  0  0  0
  4  5  2  0  0  0  0
  5  6  1  0  0  0  0
  5 31  1  0  0  0  0
  6 32  1  0  0  0  0
  6  7  2  0  0  0  0
  7 17  1  0  0  0  0
  7  8  1  0  0  0  0
  8 33  1  0  0  0  0
  8  9  2  0  0  0  0
  9 34  1  0  0  0  0
 10 20  1  0  0  0  0
 10 18  2  0  0  0  0
 11 21  1  0  0  0  0
 11 12  1  0  0  0  0
 11 20  2  0  0  0  0
 12 13  1  0  0  0  0
 12 35  1  0  0  0  0
 12 36  1  0  0  0  0
 13 19  1  0  0  0  0
 13 37  1  0  0  0  0
 13 38  1  0  0  0  0
 14 19  1  0  0  0  0
 14 39  1  0  0  0  0
 14 40  1  0  0  0  0
 14 41  1  0  0  0  0
 15 19  1  0  0  0  0
 15 16  1  0  0  0  0
 15 42  1  0  0  0  0
 15 43  1  0  0  0  0
 16 22  1  0  0  0  0
 16 23  1  0  0  0  0
 16 24  1  0  0  0  0
 18 21  1  0  0  0  0
M  END
>  <score>
0.42764776945114136

$$$$
PV-003653045471
 OpenBabel08202115463D

 43 44  0  0  0  0  0  0  0  0999 V2000
    5.5812   -0.6127    3.1348 C   0  0  0  0  0  0  0  0  0  0  0  0
    4.5473    1.9690    3.3462 C   0  0  0  0  0  0  0  0  0  0  0  0
    4.3236    1.9725    1.8740 C   0  0  0  0  0  0  0  0  0  0  0  0
    5.1676    1.9761    0.8288 C   0  0  0  0  0  0  0  0  0  0  0  0
    4.3587    1.9704   -0.3398 C   0  0  0  0  0  0  0  0  0  0  0  0
    3.0824    1.9739    0.0748 C   0  0  0  0  0  0  0  0  0  0  0  0
    1.7389    1.9790   -0.5815 C   0  0  0  0  0  0  0  0  0  0  0  0
   -0.7316    1.8406   -0.1452 C   0  0  0  0  0  0  0  0  0  0  0  0
   -1.2412    0.4882   -0.6349 C   0  0  1  0  0  0  0  0  0  0  0  0
   -1.0517   -0.5869    0.4228 C   0  0  0  0  0  0  0  0  0  0  0  0
   -2.6979    0.5935   -1.0242 C   0  0  0  0  0  0  0  0  0  0  0  0
   -4.5942   -0.8767   -1.5346 C   0  0  0  0  0  0  0  0  0  0  0  0
   -5.0972   -2.1664   -1.9885 C   0  0  0  0  0  0  0  0  0  0  0  0
   -4.3828   -3.2486   -2.4123 C   0  0  0  0  0  0  0  0  0  0  0  0
   -5.2112   -4.3340   -2.7899 C   0  0  0  0  0  0  0  0  0  0  0  0
   -6.5384   -4.0598   -2.6337 C   0  0  0  0  0  0  0  0  0  0  0  0
    4.3269    0.3141    4.0493 S   0  0  0  0  0  0  0  0  0  0  0  0
   -6.7851   -2.4705   -2.0363 S   0  0  0  0  0  0  0  0  0  0  0  0
    1.6330    2.1333   -1.7871 O   0  0  0  0  0  0  0  0  0  0  0  0
   -5.4235    0.0105   -1.3080 O   0  0  0  0  0  0  0  0  0  0  0  0
    3.0231    1.9723    1.4454 O   0  0  0  0  0  0  0  0  0  0  0  0
    0.6750    1.8058    0.2264 N   0  0  0  0  0  0  0  0  0  0  0  0
   -3.2785   -0.7019   -1.3822 N   0  0  0  0  0  0  0  0  0  0  0  0
    5.5215   -1.6485    3.3964 H   0  0  0  0  0  0  0  0  0  0  0  0
    6.5524   -0.2380    3.3824 H   0  0  0  0  0  0  0  0  0  0  0  0
    5.4121   -0.5002    2.0842 H   0  0  0  0  0  0  0  0  0  0  0  0
    5.5443    2.3015    3.5468 H   0  0  0  0  0  0  0  0  0  0  0  0
    3.8488    2.6371    3.8051 H   0  0  0  0  0  0  0  0  0  0  0  0
    6.2068    1.9818    0.8672 H   0  0  0  0  0  0  0  0  0  0  0  0
    4.6914    1.9647   -1.3251 H   0  0  0  0  0  0  0  0  0  0  0  0
    0.8704    1.6373    1.1718 H   0  0  0  0  0  0  0  0  0  0  0  0
   -0.8621    2.5596   -0.9268 H   0  0  0  0  0  0  0  0  0  0  0  0
   -1.3048    2.1340    0.7094 H   0  0  0  0  0  0  0  0  0  0  0  0
   -0.6801    0.2112   -1.5028 H   0  0  0  0  0  0  0  0  0  0  0  0
   -1.4126   -1.5226    0.0496 H   0  0  0  0  0  0  0  0  0  0  0  0
   -1.5972   -0.3203    1.3038 H   0  0  0  0  0  0  0  0  0  0  0  0
   -0.0119   -0.6748    0.6594 H   0  0  0  0  0  0  0  0  0  0  0  0
   -2.7816    1.2507   -1.8644 H   0  0  0  0  0  0  0  0  0  0  0  0
   -3.2451    0.9980   -0.1984 H   0  0  0  0  0  0  0  0  0  0  0  0
   -2.6812   -1.4675   -1.5146 H   0  0  0  0  0  0  0  0  0  0  0  0
   -3.3439   -3.2740   -2.4536 H   0  0  0  0  0  0  0  0  0  0  0  0
   -4.8474   -5.2404   -3.1471 H   0  0  0  0  0  0  0  0  0  0  0  0
   -7.3041   -4.7297   -2.8496 H   0  0  0  0  0  0  0  0  0  0  0  0
  1 17  1  0  0  0  0
  1 24  1  0  0  0  0
  1 25  1  0  0  0  0
  1 26  1  0  0  0  0
  2 17  1  0  0  0  0
  2  3  1  0  0  0  0
  2 27  1  0  0  0  0
  2 28  1  0  0  0  0
  3 21  1  0  0  0  0
  3  4  2  0  0  0  0
  4  5  1  0  0  0  0
  4 29  1  0  0  0  0
  5 30  1  0  0  0  0
  5  6  2  0  0  0  0
  6  7  1  0  0  0  0
  6 21  1  0  0  0  0
  7 22  1  0  0  0  0
  7 19  2  0  0  0  0
  8 22  1  0  0  0  0
  8  9  1  0  0  0  0
  8 32  1  0  0  0  0
  8 33  1  0  0  0  0
  9 10  1  0  0  0  0
  9 11  1  0  0  0  0
  9 34  1  6  0  0  0
 10 35  1  0  0  0  0
 10 36  1  0  0  0  0
 10 37  1  0  0  0  0
 11 23  1  0  0  0  0
 11 38  1  0  0  0  0
 11 39  1  0  0  0  0
 12 23  1  0  0  0  0
 12 13  1  0  0  0  0
 12 20  2  0  0  0  0
 13 18  1  0  0  0  0
 13 14  2  0  0  0  0
 14 15  1  0  0  0  0
 14 41  1  0  0  0  0
 15 42  1  0  0  0  0
 15 16  2  0  0  0  0
 16 18  1  0  0  0  0
 16 43  1  0  0  0  0
 22 31  1  0  0  0  0
 23 40  1  0  0  0  0
M  END
>  <score>
0.42813456058502197

$$$$
Z4007259647
 OpenBabel08202115463D

 55 56  0  0  0  0  0  0  0  0999 V2000
   -2.6476    1.5112   -1.9869 C   0  0  0  0  0  0  0  0  0  0  0  0
   -1.8624    1.0711   -0.7497 C   0  0  1  0  0  0  0  0  0  0  0  0
   -2.3740    0.3064    0.4345 C   0  0  0  0  0  0  0  0  0  0  0  0
   -1.4235   -0.3414   -0.5230 C   0  0  2  0  0  0  0  0  0  0  0  0
   -3.3774   -1.3854   -1.6387 C   0  0  0  0  0  0  0  0  0  0  0  0
   -5.1350   -2.5918   -2.7847 C   0  0  0  0  0  0  0  0  0  0  0  0
   -5.6861   -1.2864   -3.3347 C   0  0  0  0  0  0  0  0  0  0  0  0
   -5.7518   -2.9147   -1.4335 C   0  0  0  0  0  0  0  0  0  0  0  0
   -5.3030   -3.7542   -3.7496 C   0  0  0  0  0  0  0  0  0  0  0  0
   -0.0344   -0.6385   -0.0200 C   0  0  0  0  0  0  0  0  0  0  0  0
    1.9460    0.3756    0.8304 C   0  0  0  0  0  0  0  0  0  0  0  0
    2.5294    1.7663    0.9878 C   0  0  0  0  0  0  0  0  0  0  0  0
    4.4857    3.1044    1.4462 C   0  0  0  0  0  0  0  0  0  0  0  0
    4.5045    0.6869    2.0331 C   0  0  0  0  0  0  0  0  0  0  0  0
    4.4157    0.6747    3.5568 C   0  0  0  0  0  0  0  0  0  0  0  0
    5.4473    1.6825    4.0327 C   0  0  0  0  0  0  0  0  0  0  0  0
    6.5795    1.5389    3.0025 C   0  0  0  0  0  0  0  0  0  0  0  0
    6.0197    0.8172    1.7867 C   0  0  0  0  0  0  0  0  0  0  0  0
   -2.0269   -1.3556   -1.3746 N   0  0  0  0  0  0  0  0  0  0  0  0
    3.7801    1.8226    1.4724 N   0  0  0  0  0  0  0  0  0  0  0  0
   -4.1437   -0.5617   -1.1910 O   0  0  0  0  0  0  0  0  0  0  0  0
   -3.7049   -2.4279   -2.4386 O   0  0  0  0  0  0  0  0  0  0  0  0
    0.4657   -1.7250    0.0324 O   0  0  0  0  0  0  0  0  0  0  0  0
    0.5901    0.4971    0.3729 O   0  0  0  0  0  0  0  0  0  0  0  0
    1.8836    2.7663    0.6858 O   0  0  0  0  0  0  0  0  0  0  0  0
   -2.2692    1.0034   -2.8493 H   0  0  0  0  0  0  0  0  0  0  0  0
   -2.5406    2.5676   -2.1197 H   0  0  0  0  0  0  0  0  0  0  0  0
   -3.6820    1.2705   -1.8568 H   0  0  0  0  0  0  0  0  0  0  0  0
   -1.1083    1.7813   -0.4815 H   0  0  0  0  0  0  0  0  0  0  0  0
   -3.3965   -0.0071    0.4678 H   0  0  0  0  0  0  0  0  0  0  0  0
   -2.0474    0.5650    1.4201 H   0  0  0  0  0  0  0  0  0  0  0  0
   -1.4516   -2.0411   -1.7739 H   0  0  0  0  0  0  0  0  0  0  0  0
   -5.1252   -0.4663   -2.9375 H   0  0  0  0  0  0  0  0  0  0  0  0
   -6.7132   -1.1858   -3.0519 H   0  0  0  0  0  0  0  0  0  0  0  0
   -5.6080   -1.2880   -4.4019 H   0  0  0  0  0  0  0  0  0  0  0  0
   -6.7729   -3.2054   -1.5673 H   0  0  0  0  0  0  0  0  0  0  0  0
   -5.7069   -2.0497   -0.8053 H   0  0  0  0  0  0  0  0  0  0  0  0
   -5.2099   -3.7164   -0.9768 H   0  0  0  0  0  0  0  0  0  0  0  0
   -6.2746   -4.1847   -3.6244 H   0  0  0  0  0  0  0  0  0  0  0  0
   -4.5567   -4.4944   -3.5493 H   0  0  0  0  0  0  0  0  0  0  0  0
   -5.1961   -3.4018   -4.7542 H   0  0  0  0  0  0  0  0  0  0  0  0
    2.5194   -0.1770    0.1158 H   0  0  0  0  0  0  0  0  0  0  0  0
    1.9645   -0.1317    1.7723 H   0  0  0  0  0  0  0  0  0  0  0  0
    5.0377    3.1896    0.5336 H   0  0  0  0  0  0  0  0  0  0  0  0
    5.1588    3.1577    2.2762 H   0  0  0  0  0  0  0  0  0  0  0  0
    3.7764    3.9030    1.5097 H   0  0  0  0  0  0  0  0  0  0  0  0
    4.1221   -0.2215    1.6166 H   0  0  0  0  0  0  0  0  0  0  0  0
    4.6425   -0.2997    3.9365 H   0  0  0  0  0  0  0  0  0  0  0  0
    3.4362    0.9634    3.8763 H   0  0  0  0  0  0  0  0  0  0  0  0
    5.0461    2.6744    4.0260 H   0  0  0  0  0  0  0  0  0  0  0  0
    5.7917    1.4432    5.0171 H   0  0  0  0  0  0  0  0  0  0  0  0
    7.3833    0.9716    3.4232 H   0  0  0  0  0  0  0  0  0  0  0  0
    6.9361    2.5067    2.7178 H   0  0  0  0  0  0  0  0  0  0  0  0
    6.4656   -0.1507    1.6907 H   0  0  0  0  0  0  0  0  0  0  0  0
    6.2047    1.3853    0.8990 H   0  0  0  0  0  0  0  0  0  0  0  0
  1  2  1  0  0  0  0
  1 26  1  0  0  0  0
  1 27  1  0  0  0  0
  1 28  1  0  0  0  0
  2  3  1  0  0  0  0
  2  4  1  0  0  0  0
  2 29  1  1  0  0  0
  3  4  1  0  0  0  0
  3 30  1  0  0  0  0
  3 31  1  0  0  0  0
  4 19  1  0  0  0  0
  4 10  1  1  0  0  0
  5 19  1  0  0  0  0
  5 22  1  0  0  0  0
  5 21  2  0  0  0  0
  6 22  1  0  0  0  0
  6  7  1  0  0  0  0
  6  8  1  0  0  0  0
  6  9  1  0  0  0  0
  7 33  1  0  0  0  0
  7 34  1  0  0  0  0
  7 35  1  0  0  0  0
  8 36  1  0  0  0  0
  8 37  1  0  0  0  0
  8 38  1  0  0  0  0
  9 39  1  0  0  0  0
  9 40  1  0  0  0  0
  9 41  1  0  0  0  0
 10 24  1  0  0  0  0
 10 23  2  0  0  0  0
 11 24  1  0  0  0  0
 11 12  1  0  0  0  0
 11 42  1  0  0  0  0
 11 43  1  0  0  0  0
 12 20  1  0  0  0  0
 12 25  2  0  0  0  0
 13 20  1  0  0  0  0
 13 44  1  0  0  0  0
 13 45  1  0  0  0  0
 13 46  1  0  0  0  0
 14 20  1  0  0  0  0
 14 15  1  0  0  0  0
 14 18  1  0  0  0  0
 14 47  1  0  0  0  0
 15 16  1  0  0  0  0
 15 48  1  0  0  0  0
 15 49  1  0  0  0  0
 16 17  1  0  0  0  0
 16 50  1  0  0  0  0
 16 51  1  0  0  0  0
 17 18  1  0  0  0  0
 17 52  1  0  0  0  0
 17 53  1  0  0  0  0
 18 54  1  0  0  0  0
 18 55  1  0  0  0  0
 19 32  1  0  0  0  0
M  END
>  <score>
0.42819613218307495

$$$$
PV-004013165896
 OpenBabel08202115463D

 49 52  0  0  0  0  0  0  0  0999 V2000
   -2.1956    1.4236   -1.2746 O   0  0  0  0  0  0  0  0  0  0  0  0
    4.2890    0.7526    1.7352 O   0  0  0  0  0  0  0  0  0  0  0  0
   -5.9285   -3.3765   -4.5744 O   0  0  0  0  0  0  0  0  0  0  0  0
   -1.5389    0.3991   -1.1886 C   0  0  0  0  0  0  0  0  0  0  0  0
    0.4232    1.5975   -0.3554 C   0  0  0  0  0  0  0  0  0  0  0  0
    0.2171    1.9562    1.1153 C   0  0  1  0  0  0  0  0  0  0  0  0
    0.8231    1.1845    2.2494 C   0  0  0  0  0  0  0  0  0  0  0  0
    1.3200    2.5588    1.9280 C   0  0  1  0  0  0  0  0  0  0  0  0
    2.6600    2.8957    1.3152 C   0  0  0  0  0  0  0  0  0  0  0  0
    4.4706    1.7369    2.4506 C   0  0  0  0  0  0  0  0  0  0  0  0
    5.5183    1.7208    3.5401 C   0  0  0  0  0  0  0  0  0  0  0  0
    6.6172    2.7719    3.3665 C   0  0  0  0  0  0  0  0  0  0  0  0
    6.5611    0.6109    3.3886 C   0  0  0  0  0  0  0  0  0  0  0  0
   -2.1315   -0.9098   -1.5288 C   0  0  0  0  0  0  0  0  0  0  0  0
   -3.2969   -1.2080   -2.1680 C   0  0  0  0  0  0  0  0  0  0  0  0
   -4.4312   -3.3818   -2.8016 C   0  0  1  0  0  0  0  0  0  0  0  0
   -5.7745   -2.9840   -2.2486 C   0  0  0  0  0  0  0  0  0  0  0  0
   -6.7400   -3.3538   -3.3785 C   0  0  0  0  0  0  0  0  0  0  0  0
   -4.5839   -3.0892   -4.3013 C   0  0  0  0  0  0  0  0  0  0  0  0
   -2.2432   -3.0394   -1.6124 C   0  0  0  0  0  0  0  0  0  0  0  0
   -0.2641    0.3901   -0.7887 N   0  0  0  0  0  0  0  0  0  0  0  0
    3.7427    2.8611    2.2871 N   0  0  0  0  0  0  0  0  0  0  0  0
   -3.3595   -2.5775   -2.2137 N   0  0  0  0  0  0  0  0  0  0  0  0
   -1.4677   -2.0615   -1.1822 N   0  0  0  0  0  0  0  0  0  0  0  0
    7.7981    1.6682    4.1907 S   0  0  0  0  0  0  0  0  0  0  0  0
    0.2251   -0.4590   -0.7872 H   0  0  0  0  0  0  0  0  0  0  0  0
    0.0699    2.4137   -0.9502 H   0  0  0  0  0  0  0  0  0  0  0  0
    1.4715    1.4620   -0.5216 H   0  0  0  0  0  0  0  0  0  0  0  0
   -0.7523    2.3563    1.3276 H   0  0  0  0  0  0  0  0  0  0  0  0
    1.4384    0.3325    2.0483 H   0  0  0  0  0  0  0  0  0  0  0  0
    0.2591    1.0148    3.1427 H   0  0  0  0  0  0  0  0  0  0  0  0
    0.9801    3.3040    2.6166 H   0  0  0  0  0  0  0  0  0  0  0  0
    2.6077    3.8784    0.8952 H   0  0  0  0  0  0  0  0  0  0  0  0
    2.8711    2.1873    0.5415 H   0  0  0  0  0  0  0  0  0  0  0  0
    3.9434    3.6560    2.8240 H   0  0  0  0  0  0  0  0  0  0  0  0
    5.0393    1.7431    4.4966 H   0  0  0  0  0  0  0  0  0  0  0  0
    6.4342    3.6863    3.8911 H   0  0  0  0  0  0  0  0  0  0  0  0
    6.8588    2.9873    2.3466 H   0  0  0  0  0  0  0  0  0  0  0  0
    6.7906    0.3624    2.3735 H   0  0  0  0  0  0  0  0  0  0  0  0
    6.3311   -0.2820    3.9317 H   0  0  0  0  0  0  0  0  0  0  0  0
   -3.9956   -0.5357   -2.5440 H   0  0  0  0  0  0  0  0  0  0  0  0
   -4.2348   -4.4194   -2.6290 H   0  0  0  0  0  0  0  0  0  0  0  0
   -5.9997   -3.5310   -1.3570 H   0  0  0  0  0  0  0  0  0  0  0  0
   -5.8091   -1.9347   -2.0422 H   0  0  0  0  0  0  0  0  0  0  0  0
   -7.1748   -4.3153   -3.2014 H   0  0  0  0  0  0  0  0  0  0  0  0
   -7.5154   -2.6215   -3.4647 H   0  0  0  0  0  0  0  0  0  0  0  0
   -4.3652   -2.0631   -4.5115 H   0  0  0  0  0  0  0  0  0  0  0  0
   -3.9374   -3.7175   -4.8777 H   0  0  0  0  0  0  0  0  0  0  0  0
   -2.0197   -4.0490   -1.5009 H   0  0  0  0  0  0  0  0  0  0  0  0
  4 21  1  0  0  0  0
  4 14  1  0  0  0  0
  4  1  2  0  0  0  0
  5 21  1  0  0  0  0
  5  6  1  0  0  0  0
  5 27  1  0  0  0  0
  5 28  1  0  0  0  0
  6  7  1  0  0  0  0
  6  8  1  0  0  0  0
  6 29  1  1  0  0  0
  7  8  1  0  0  0  0
  7 30  1  0  0  0  0
  7 31  1  0  0  0  0
  8  9  1  0  0  0  0
  8 32  1  1  0  0  0
  9 22  1  0  0  0  0
  9 33  1  0  0  0  0
  9 34  1  0  0  0  0
 10 22  1  0  0  0  0
 10 11  1  0  0  0  0
 10  2  2  0  0  0  0
 11 12  1  0  0  0  0
 11 13  1  0  0  0  0
 11 36  1  0  0  0  0
 12 25  1  0  0  0  0
 12 37  1  0  0  0  0
 12 38  1  0  0  0  0
 13 25  1  0  0  0  0
 13 39  1  0  0  0  0
 13 40  1  0  0  0  0
 14 24  1  0  0  0  0
 14 15  2  0  0  0  0
 15 23  1  0  0  0  0
 15 41  1  0  0  0  0
 16 23  1  0  0  0  0
 16 17  1  0  0  0  0
 16 19  1  0  0  0  0
 16 42  1  1  0  0  0
 17 18  1  0  0  0  0
 17 43  1  0  0  0  0
 17 44  1  0  0  0  0
 18  3  1  0  0  0  0
 18 45  1  0  0  0  0
 18 46  1  0  0  0  0
 19  3  1  0  0  0  0
 19 47  1  0  0  0  0
 19 48  1  0  0  0  0
 20 23  1  0  0  0  0
 20 49  1  0  0  0  0
 20 24  2  0  0  0  0
 21 26  1  0  0  0  0
 22 35  1  0  0  0  0
M  END
>  <score>
0.42836129665374756

$$$$
Z3777892349
 OpenBabel08202115463D

 44 46  0  0  0  0  0  0  0  0999 V2000
   -0.5577    1.4365    1.0531 O   0  0  0  0  0  0  0  0  0  0  0  0
   -2.3949   -2.1673   -1.8642 O   0  0  0  0  0  0  0  0  0  0  0  0
    5.6486    1.9387    2.0189 O   0  0  0  0  0  0  0  0  0  0  0  0
    0.3921    1.2012    0.3105 C   0  0  0  0  0  0  0  0  0  0  0  0
   -0.9657    1.2263   -1.7232 C   0  0  0  0  0  0  0  0  0  0  0  0
   -1.7031   -0.0803   -1.8786 C   0  0  0  0  0  0  0  0  0  0  0  0
   -1.3749   -1.3246   -1.4703 C   0  0  0  0  0  0  0  0  0  0  0  0
   -3.2884   -1.3609   -2.4957 C   0  0  0  0  0  0  0  0  0  0  0  0
   -4.5609   -1.9681   -2.9499 C   0  0  0  0  0  0  0  0  0  0  0  0
   -4.7517   -3.3347   -2.8178 C   0  0  0  0  0  0  0  0  0  0  0  0
   -5.9333   -3.9120   -3.2433 C   0  0  0  0  0  0  0  0  0  0  0  0
   -6.9296   -3.1234   -3.7973 C   0  0  0  0  0  0  0  0  0  0  0  0
   -6.7394   -1.7607   -3.9291 C   0  0  0  0  0  0  0  0  0  0  0  0
   -5.5544   -1.1820   -3.5023 C   0  0  0  0  0  0  0  0  0  0  0  0
    1.9971    1.0535    2.1496 C   0  0  0  0  0  0  0  0  0  0  0  0
    3.5026    0.8734    2.3854 C   0  0  1  0  0  0  0  0  0  0  0  0
    4.2594    2.0239    1.7278 C   0  0  0  0  0  0  0  0  0  0  0  0
    5.9411    2.0308    3.4220 C   0  0  0  0  0  0  0  0  0  0  0  0
    5.2711    0.8747    4.1675 C   0  0  0  0  0  0  0  0  0  0  0  0
    3.7824    0.8609    3.8867 C   0  0  0  0  0  0  0  0  0  0  0  0
    0.2976    1.0768   -1.0164 N   0  0  0  0  0  0  0  0  0  0  0  0
   -2.9230   -0.1092   -2.5317 N   0  0  0  0  0  0  0  0  0  0  0  0
    1.6478    1.0386    0.7369 N   0  0  0  0  0  0  0  0  0  0  0  0
    3.2385   -0.2635    4.4304 F   0  0  0  0  0  0  0  0  0  0  0  0
    3.2081    1.9715    4.4589 F   0  0  0  0  0  0  0  0  0  0  0  0
    1.1071    0.8780   -1.5316 H   0  0  0  0  0  0  0  0  0  0  0  0
   -0.7685    1.6259   -2.6960 H   0  0  0  0  0  0  0  0  0  0  0  0
   -1.5854    1.9062   -1.1766 H   0  0  0  0  0  0  0  0  0  0  0  0
   -0.5138   -1.5975   -0.9549 H   0  0  0  0  0  0  0  0  0  0  0  0
   -4.0058   -3.9258   -2.3985 H   0  0  0  0  0  0  0  0  0  0  0  0
   -6.0748   -4.9379   -3.1479 H   0  0  0  0  0  0  0  0  0  0  0  0
   -7.8203   -3.5571   -4.1139 H   0  0  0  0  0  0  0  0  0  0  0  0
   -7.4854   -1.1697   -4.3484 H   0  0  0  0  0  0  0  0  0  0  0  0
   -5.4128   -0.1561   -3.5977 H   0  0  0  0  0  0  0  0  0  0  0  0
    2.3583    0.9047    0.0754 H   0  0  0  0  0  0  0  0  0  0  0  0
    1.4757    0.2582    2.6401 H   0  0  0  0  0  0  0  0  0  0  0  0
    1.6943    1.9906    2.5678 H   0  0  0  0  0  0  0  0  0  0  0  0
    3.8230   -0.0532    1.9569 H   0  0  0  0  0  0  0  0  0  0  0  0
    3.8787    2.9527    2.0983 H   0  0  0  0  0  0  0  0  0  0  0  0
    4.1186    1.9774    0.6681 H   0  0  0  0  0  0  0  0  0  0  0  0
    6.9999    1.9815    3.5681 H   0  0  0  0  0  0  0  0  0  0  0  0
    5.5711    2.9602    3.8017 H   0  0  0  0  0  0  0  0  0  0  0  0
    5.4308    0.9931    5.2188 H   0  0  0  0  0  0  0  0  0  0  0  0
    5.7000   -0.0502    3.8429 H   0  0  0  0  0  0  0  0  0  0  0  0
  4 21  1  0  0  0  0
  4 23  1  0  0  0  0
  4  1  2  0  0  0  0
  5 21  1  0  0  0  0
  5  6  1  0  0  0  0
  5 27  1  0  0  0  0
  5 28  1  0  0  0  0
  6 22  1  0  0  0  0
  6  7  2  0  0  0  0
  7  2  1  0  0  0  0
  7 29  1  0  0  0  0
  8  2  1  0  0  0  0
  8  9  1  0  0  0  0
  8 22  2  0  0  0  0
  9 14  1  0  0  0  0
  9 10  2  0  0  0  0
 10 11  1  0  0  0  0
 10 30  1  0  0  0  0
 11 31  1  0  0  0  0
 11 12  2  0  0  0  0
 12 13  1  0  0  0  0
 12 32  1  0  0  0  0
 13 33  1  0  0  0  0
 13 14  2  0  0  0  0
 14 34  1  0  0  0  0
 15 23  1  0  0  0  0
 15 16  1  0  0  0  0
 15 36  1  0  0  0  0
 15 37  1  0  0  0  0
 16 17  1  0  0  0  0
 16 20  1  0  0  0  0
 16 38  1  6  0  0  0
 17  3  1  0  0  0  0
 17 39  1  0  0  0  0
 17 40  1  0  0  0  0
 18  3  1  0  0  0  0
 18 19  1  0  0  0  0
 18 41  1  0  0  0  0
 18 42  1  0  0  0  0
 19 20  1  0  0  0  0
 19 43  1  0  0  0  0
 19 44  1  0  0  0  0
 20 24  1  0  0  0  0
 20 25  1  0  0  0  0
 21 26  1  0  0  0  0
 23 35  1  0  0  0  0
M  END
>  <score>
0.42857140302658081

$$$$
PV-003392253464
 OpenBabel08202115463D

 45 47  0  0  0  0  0  0  0  0999 V2000
    2.7602    2.9920    3.3009 C   0  0  0  0  0  0  0  0  0  0  0  0
    3.2355    2.2911    2.0220 C   0  0  1  0  0  0  0  0  0  0  0  0
    1.2835    1.3092    0.9241 C   0  0  0  0  0  0  0  0  0  0  0  0
   -0.5491    0.4874   -0.5455 C   0  0  0  0  0  0  0  0  0  0  0  0
   -0.3899   -0.8186   -0.1223 C   0  0  0  0  0  0  0  0  0  0  0  0
   -1.2873   -1.7936   -0.5294 C   0  0  0  0  0  0  0  0  0  0  0  0
   -2.3382   -1.4605   -1.3630 C   0  0  0  0  0  0  0  0  0  0  0  0
   -3.2390   -2.5343   -1.7559 C   0  0  0  0  0  0  0  0  0  0  0  0
   -3.2799   -3.8670   -1.5918 C   0  0  0  0  0  0  0  0  0  0  0  0
   -4.4650   -4.3142   -2.2364 C   0  0  0  0  0  0  0  0  0  0  0  0
   -5.0557   -3.2266   -2.7550 C   0  0  0  0  0  0  0  0  0  0  0  0
   -6.2871   -2.9515   -3.5448 C   0  0  0  0  0  0  0  0  0  0  0  0
   -2.4980   -0.1506   -1.7875 C   0  0  0  0  0  0  0  0  0  0  0  0
   -1.6032    0.8213   -1.3814 C   0  0  0  0  0  0  0  0  0  0  0  0
    4.4975    2.9656    1.4920 C   0  0  0  0  0  0  0  0  0  0  0  0
    3.5974    0.8305    2.3132 C   0  0  0  0  0  0  0  0  0  0  0  0
    4.8666    0.5129    3.0394 C   0  0  0  0  0  0  0  0  0  0  0  0
    4.7567    0.2325    1.5734 C   0  0  0  0  0  0  0  0  0  0  0  0
    2.1864    2.2899    1.0135 N   0  0  0  0  0  0  0  0  0  0  0  0
    0.3925    1.4420   -0.0950 N   0  0  0  0  0  0  0  0  0  0  0  0
   -6.7310   -1.6824   -3.6293 N   0  0  0  0  0  0  0  0  0  0  0  0
    1.2097    0.3393    1.6694 O   0  0  0  0  0  0  0  0  0  0  0  0
   -6.8879   -3.8708   -4.1104 O   0  0  0  0  0  0  0  0  0  0  0  0
   -4.3225   -2.1019   -2.4729 O   0  0  0  0  0  0  0  0  0  0  0  0
    5.5632    2.8387    2.1003 O   0  0  0  0  0  0  0  0  0  0  0  0
    4.3765    3.5744    0.3728 O   0  0  0  0  0  0  0  0  0  0  0  0
    2.4410    3.9859    3.0660 H   0  0  0  0  0  0  0  0  0  0  0  0
    3.5649    3.0331    4.0050 H   0  0  0  0  0  0  0  0  0  0  0  0
    1.9431    2.4458    3.7240 H   0  0  0  0  0  0  0  0  0  0  0  0
    2.1405    3.0344    0.3778 H   0  0  0  0  0  0  0  0  0  0  0  0
    0.4043    2.2978   -0.5722 H   0  0  0  0  0  0  0  0  0  0  0  0
    0.4033   -1.0700    0.5017 H   0  0  0  0  0  0  0  0  0  0  0  0
   -1.1697   -2.7755   -0.2077 H   0  0  0  0  0  0  0  0  0  0  0  0
   -2.5826   -4.4549   -1.0921 H   0  0  0  0  0  0  0  0  0  0  0  0
   -4.8078   -5.2943   -2.2949 H   0  0  0  0  0  0  0  0  0  0  0  0
   -7.5607   -1.4847   -4.1119 H   0  0  0  0  0  0  0  0  0  0  0  0
   -6.2241   -0.9570   -3.2083 H   0  0  0  0  0  0  0  0  0  0  0  0
   -3.2912    0.1008   -2.4115 H   0  0  0  0  0  0  0  0  0  0  0  0
   -1.7207    1.8033   -1.7031 H   0  0  0  0  0  0  0  0  0  0  0  0
    3.4947    3.9478    0.3048 H   0  0  0  0  0  0  0  0  0  0  0  0
    2.7700    0.1783    2.5000 H   0  0  0  0  0  0  0  0  0  0  0  0
    4.8944   -0.2972    3.7379 H   0  0  0  0  0  0  0  0  0  0  0  0
    5.4966    1.3053    3.3862 H   0  0  0  0  0  0  0  0  0  0  0  0
    5.3072    0.8248    0.8726 H   0  0  0  0  0  0  0  0  0  0  0  0
    4.7050   -0.7776    1.2243 H   0  0  0  0  0  0  0  0  0  0  0  0
  1  2  1  0  0  0  0
  1 27  1  0  0  0  0
  1 28  1  0  0  0  0
  1 29  1  0  0  0  0
  2 19  1  0  0  0  0
  2 15  1  6  0  0  0
  2 16  1  0  0  0  0
  3 19  1  0  0  0  0
  3 20  1  0  0  0  0
  3 22  2  0  0  0  0
  4 20  1  0  0  0  0
  4 14  1  0  0  0  0
  4  5  2  0  0  0  0
  5  6  1  0  0  0  0
  5 32  1  0  0  0  0
  6 33  1  0  0  0  0
  6  7  2  0  0  0  0
  7  8  1  0  0  0  0
  7 13  1  0  0  0  0
  8 24  1  0  0  0  0
  8  9  2  0  0  0  0
  9 10  1  0  0  0  0
  9 34  1  0  0  0  0
 10 35  1  0  0  0  0
 10 11  2  0  0  0  0
 11 12  1  0  0  0  0
 11 24  1  0  0  0  0
 12 21  1  0  0  0  0
 12 23  2  0  0  0  0
 13 38  1  0  0  0  0
 13 14  2  0  0  0  0
 14 39  1  0  0  0  0
 15 26  1  0  0  0  0
 15 25  2  0  0  0  0
 16 17  1  0  0  0  0
 16 18  1  0  0  0  0
 16 41  1  0  0  0  0
 17 18  1  0  0  0  0
 17 42  1  0  0  0  0
 17 43  1  0  0  0  0
 18 44  1  0  0  0  0
 18 45  1  0  0  0  0
 19 30  1  0  0  0  0
 20 31  1  0  0  0  0
 21 36  1  0  0  0  0
 21 37  1  0  0  0  0
 26 40  1  0  0  0  0
M  END
>  <score>
0.42874807119369507

$$$$
PV-003995114117
 OpenBabel08202115463D

 51 53  0  0  0  0  0  0  0  0999 V2000
    5.8296    0.8424    2.8789 C   0  0  0  0  0  0  0  0  0  0  0  0
    4.9544    2.0261    2.5003 C   0  0  0  0  0  0  0  0  0  0  0  0
    5.4858    3.3013    3.1341 C   0  0  0  0  0  0  0  0  0  0  0  0
    3.5003    1.7912    2.8687 C   0  0  0  0  0  0  0  0  0  0  0  0
    1.1896    1.9270    1.8907 C   0  0  0  0  0  0  0  0  0  0  0  0
    0.6115    0.6528    1.2732 C   0  0  1  0  0  0  0  0  0  0  0  0
   -0.9590    0.6320    1.1939 C   0  0  0  0  0  0  0  0  0  0  0  0
   -0.8858    0.5882   -0.3536 C   0  0  1  0  0  0  0  0  0  0  0  0
   -2.7341   -0.6815   -1.2731 C   0  0  0  0  0  0  0  0  0  0  0  0
   -3.1307   -1.9414   -1.9044 C   0  0  0  0  0  0  0  0  0  0  0  0
   -3.0012   -3.8991   -2.7755 C   0  0  0  0  0  0  0  0  0  0  0  0
   -4.3306   -3.5457   -2.8379 C   0  0  0  0  0  0  0  0  0  0  0  0
   -5.5181   -4.1466   -3.3043 C   0  0  0  0  0  0  0  0  0  0  0  0
   -6.6911   -3.4810   -3.2361 C   0  0  0  0  0  0  0  0  0  0  0  0
   -6.7164   -2.1793   -2.6905 C   0  0  0  0  0  0  0  0  0  0  0  0
   -5.6011   -1.5746   -2.2269 C   0  0  0  0  0  0  0  0  0  0  0  0
    0.6846    0.6089   -0.2744 C   0  0  0  0  0  0  0  0  0  0  0  0
    1.3444   -0.6326   -0.8240 C   0  0  0  0  0  0  0  0  0  0  0  0
    1.3232    1.8468   -0.9028 C   0  0  0  0  0  0  0  0  0  0  0  0
    3.1714    1.4302    3.9979 O   0  0  0  0  0  0  0  0  0  0  0  0
   -3.5410    0.2181   -1.0805 O   0  0  0  0  0  0  0  0  0  0  0  0
    2.6418    2.0151    1.8548 N   0  0  0  0  0  0  0  0  0  0  0  0
   -1.4355   -0.6232   -0.9407 N   0  0  0  0  0  0  0  0  0  0  0  0
   -2.2870   -2.9251   -2.1888 N   0  0  0  0  0  0  0  0  0  0  0  0
   -4.4020   -2.2645   -2.2778 N   0  0  0  0  0  0  0  0  0  0  0  0
   -5.4821   -5.3902   -3.8202 F   0  0  0  0  0  0  0  0  0  0  0  0
    5.4734   -0.0376    2.3852 H   0  0  0  0  0  0  0  0  0  0  0  0
    5.7928    0.6963    3.9382 H   0  0  0  0  0  0  0  0  0  0  0  0
    6.8387    1.0351    2.5798 H   0  0  0  0  0  0  0  0  0  0  0  0
    5.0069    2.1436    1.4381 H   0  0  0  0  0  0  0  0  0  0  0  0
    4.9568    4.0698    2.6101 H   0  0  0  0  0  0  0  0  0  0  0  0
    6.5417    3.3926    2.9866 H   0  0  0  0  0  0  0  0  0  0  0  0
    5.2676    3.3299    4.1812 H   0  0  0  0  0  0  0  0  0  0  0  0
    3.0406    2.2658    0.9954 H   0  0  0  0  0  0  0  0  0  0  0  0
    0.7917    2.7655    1.3584 H   0  0  0  0  0  0  0  0  0  0  0  0
    0.8782    1.9727    2.9134 H   0  0  0  0  0  0  0  0  0  0  0  0
    1.0365   -0.2026    1.7556 H   0  0  0  0  0  0  0  0  0  0  0  0
   -1.4267    1.5120    1.5835 H   0  0  0  0  0  0  0  0  0  0  0  0
   -1.4062   -0.2348    1.6339 H   0  0  0  0  0  0  0  0  0  0  0  0
   -1.3108    1.4435   -0.8360 H   0  0  0  0  0  0  0  0  0  0  0  0
   -0.8563   -1.3987   -1.0938 H   0  0  0  0  0  0  0  0  0  0  0  0
   -2.6066   -4.7929   -3.1319 H   0  0  0  0  0  0  0  0  0  0  0  0
   -7.5668   -3.9229   -3.5819 H   0  0  0  0  0  0  0  0  0  0  0  0
   -7.6219   -1.6700   -2.6441 H   0  0  0  0  0  0  0  0  0  0  0  0
   -5.6424   -0.6103   -1.8396 H   0  0  0  0  0  0  0  0  0  0  0  0
    0.7290   -1.3665   -0.3471 H   0  0  0  0  0  0  0  0  0  0  0  0
    2.3688   -0.7101   -0.5246 H   0  0  0  0  0  0  0  0  0  0  0  0
    1.2793   -0.6843   -1.8908 H   0  0  0  0  0  0  0  0  0  0  0  0
    0.7390    2.7107   -0.6633 H   0  0  0  0  0  0  0  0  0  0  0  0
    1.3632    1.7268   -1.9653 H   0  0  0  0  0  0  0  0  0  0  0  0
    2.3147    1.9696   -0.5197 H   0  0  0  0  0  0  0  0  0  0  0  0
  1  2  1  0  0  0  0
  1 27  1  0  0  0  0
  1 28  1  0  0  0  0
  1 29  1  0  0  0  0
  2  3  1  0  0  0  0
  2  4  1  0  0  0  0
  2 30  1  0  0  0  0
  3 31  1  0  0  0  0
  3 32  1  0  0  0  0
  3 33  1  0  0  0  0
  4 22  1  0  0  0  0
  4 20  2  0  0  0  0
  5 22  1  0  0  0  0
  5  6  1  0  0  0  0
  5 35  1  0  0  0  0
  5 36  1  0  0  0  0
  6  7  1  0  0  0  0
  6 17  1  0  0  0  0
  6 37  1  1  0  0  0
  7  8  1  0  0  0  0
  7 38  1  0  0  0  0
  7 39  1  0  0  0  0
  8 23  1  0  0  0  0
  8 17  1  0  0  0  0
  8 40  1  6  0  0  0
  9 23  1  0  0  0  0
  9 10  1  0  0  0  0
  9 21  2  0  0  0  0
 10 25  1  0  0  0  0
 10 24  2  0  0  0  0
 11 24  1  0  0  0  0
 11 42  1  0  0  0  0
 11 12  2  0  0  0  0
 12 13  1  0  0  0  0
 12 25  1  0  0  0  0
 13 26  1  0  0  0  0
 13 14  2  0  0  0  0
 14 15  1  0  0  0  0
 14 43  1  0  0  0  0
 15 44  1  0  0  0  0
 15 16  2  0  0  0  0
 16 25  1  0  0  0  0
 16 45  1  0  0  0  0
 17 18  1  0  0  0  0
 17 19  1  0  0  0  0
 18 46  1  0  0  0  0
 18 47  1  0  0  0  0
 18 48  1  0  0  0  0
 19 49  1  0  0  0  0
 19 50  1  0  0  0  0
 19 51  1  0  0  0  0
 22 34  1  0  0  0  0
 23 41  1  0  0  0  0
M  END
>  <score>
0.42878031730651855

$$$$
PV-003906750766
 OpenBabel08202115463D

 60 61  0  0  0  0  0  0  0  0999 V2000
   -8.2636   -3.6450   -4.1650 C   0  0  0  0  0  0  0  0  0  0  0  0
   -7.5725   -2.3538   -3.7581 C   0  0  0  0  0  0  0  0  0  0  0  0
   -6.2321   -2.5766   -3.0769 C   0  0  1  0  0  0  0  0  0  0  0  0
   -5.2867   -3.3676   -3.9661 C   0  0  0  0  0  0  0  0  0  0  0  0
   -5.6165   -1.2581   -2.6376 C   0  0  0  0  0  0  0  0  0  0  0  0
   -4.2314   -1.4122   -2.0309 C   0  0  0  0  0  0  0  0  0  0  0  0
   -3.6820   -0.1161   -1.4676 C   0  0  0  0  0  0  0  0  0  0  0  0
   -1.7472    0.9834   -0.4405 C   0  0  0  0  0  0  0  0  0  0  0  0
   -0.3980    0.6358    0.1926 C   0  0  2  0  0  0  0  0  0  0  0  0
    0.5522    1.8441    0.3897 C   0  0  0  0  0  0  0  0  0  0  0  0
    1.7088    0.9880   -0.1759 C   0  0  1  0  0  0  0  0  0  0  0  0
    2.5848    0.3349    0.8807 C   0  0  0  0  0  0  0  0  0  0  0  0
    4.0571    1.0272    2.7168 C   0  0  0  0  0  0  0  0  0  0  0  0
    4.9392    2.1268    3.2754 C   0  0  1  0  0  0  0  0  0  0  0  0
    5.0622    2.1407    4.8110 C   0  0  0  0  0  0  0  0  0  0  0  0
    6.3720    1.3670    4.7182 C   0  0  0  0  0  0  0  0  0  0  0  0
    6.4778    1.8154    3.2493 C   0  0  0  0  0  0  0  0  0  0  0  0
    6.8819    0.7051    2.2768 C   0  0  0  0  0  0  0  0  0  0  0  0
    7.3613    3.0319    3.0259 C   0  0  0  0  0  0  0  0  0  0  0  0
    0.6469    0.0535   -0.7943 C   0  0  0  0  0  0  0  0  0  0  0  0
   -4.3194    0.9223   -1.5310 O   0  0  0  0  0  0  0  0  0  0  0  0
    3.9047   -0.0263    3.3128 O   0  0  0  0  0  0  0  0  0  0  0  0
   -2.4658   -0.1939   -0.9047 N   0  0  0  0  0  0  0  0  0  0  0  0
    3.4703    1.2923    1.5462 N   0  0  0  0  0  0  0  0  0  0  0  0
   -0.6082   -0.1430    1.3540 F   0  0  0  0  0  0  0  0  0  0  0  0
   -7.6652   -4.1577   -4.8889 H   0  0  0  0  0  0  0  0  0  0  0  0
   -9.2199   -3.4193   -4.5886 H   0  0  0  0  0  0  0  0  0  0  0  0
   -8.3922   -4.2671   -3.3040 H   0  0  0  0  0  0  0  0  0  0  0  0
   -8.2123   -1.8247   -3.0831 H   0  0  0  0  0  0  0  0  0  0  0  0
   -7.4129   -1.7632   -4.6360 H   0  0  0  0  0  0  0  0  0  0  0  0
   -6.4102   -3.1586   -2.1969 H   0  0  0  0  0  0  0  0  0  0  0  0
   -5.7791   -4.2518   -4.3136 H   0  0  0  0  0  0  0  0  0  0  0  0
   -4.4163   -3.6408   -3.4070 H   0  0  0  0  0  0  0  0  0  0  0  0
   -4.9992   -2.7672   -4.8039 H   0  0  0  0  0  0  0  0  0  0  0  0
   -6.2585   -0.8103   -1.9081 H   0  0  0  0  0  0  0  0  0  0  0  0
   -5.5436   -0.6167   -3.4910 H   0  0  0  0  0  0  0  0  0  0  0  0
   -3.5642   -1.7634   -2.7902 H   0  0  0  0  0  0  0  0  0  0  0  0
   -4.2838   -2.1318   -1.2408 H   0  0  0  0  0  0  0  0  0  0  0  0
   -2.0473   -1.0742   -0.8029 H   0  0  0  0  0  0  0  0  0  0  0  0
   -2.3481    1.4868    0.2878 H   0  0  0  0  0  0  0  0  0  0  0  0
   -1.5777    1.6324   -1.2741 H   0  0  0  0  0  0  0  0  0  0  0  0
    0.6816    2.1416    1.4093 H   0  0  0  0  0  0  0  0  0  0  0  0
    0.3061    2.6999   -0.2036 H   0  0  0  0  0  0  0  0  0  0  0  0
    2.3261    1.4922   -0.8898 H   0  0  0  0  0  0  0  0  0  0  0  0
    3.1839   -0.4177    0.4121 H   0  0  0  0  0  0  0  0  0  0  0  0
    1.9541   -0.1178    1.6170 H   0  0  0  0  0  0  0  0  0  0  0  0
    3.6384    2.1576    1.1180 H   0  0  0  0  0  0  0  0  0  0  0  0
    4.6626    3.0634    2.8380 H   0  0  0  0  0  0  0  0  0  0  0  0
    5.1628    3.1195    5.2315 H   0  0  0  0  0  0  0  0  0  0  0  0
    4.2795    1.6138    5.3158 H   0  0  0  0  0  0  0  0  0  0  0  0
    7.1511    1.7367    5.3518 H   0  0  0  0  0  0  0  0  0  0  0  0
    6.2732    0.3102    4.8532 H   0  0  0  0  0  0  0  0  0  0  0  0
    6.2021   -0.1159    2.3696 H   0  0  0  0  0  0  0  0  0  0  0  0
    7.8735    0.3744    2.5056 H   0  0  0  0  0  0  0  0  0  0  0  0
    6.8528    1.0806    1.2753 H   0  0  0  0  0  0  0  0  0  0  0  0
    7.0010    3.8483    3.6164 H   0  0  0  0  0  0  0  0  0  0  0  0
    7.3390    3.3034    1.9912 H   0  0  0  0  0  0  0  0  0  0  0  0
    8.3657    2.8005    3.3129 H   0  0  0  0  0  0  0  0  0  0  0  0
    0.8460   -0.9893   -0.6607 H   0  0  0  0  0  0  0  0  0  0  0  0
    0.4355    0.2476   -1.8251 H   0  0  0  0  0  0  0  0  0  0  0  0
  1  2  1  0  0  0  0
  1 26  1  0  0  0  0
  1 27  1  0  0  0  0
  1 28  1  0  0  0  0
  2  3  1  0  0  0  0
  2 29  1  0  0  0  0
  2 30  1  0  0  0  0
  3  4  1  0  0  0  0
  3  5  1  0  0  0  0
  3 31  1  1  0  0  0
  4 32  1  0  0  0  0
  4 33  1  0  0  0  0
  4 34  1  0  0  0  0
  5  6  1  0  0  0  0
  5 35  1  0  0  0  0
  5 36  1  0  0  0  0
  6  7  1  0  0  0  0
  6 37  1  0  0  0  0
  6 38  1  0  0  0  0
  7 23  1  0  0  0  0
  7 21  2  0  0  0  0
  8 23  1  0  0  0  0
  8  9  1  0  0  0  0
  8 40  1  0  0  0  0
  8 41  1  0  0  0  0
  9 25  1  1  0  0  0
  9 10  1  0  0  0  0
  9 20  1  0  0  0  0
 10 11  1  0  0  0  0
 10 42  1  0  0  0  0
 10 43  1  0  0  0  0
 11 12  1  0  0  0  0
 11 20  1  0  0  0  0
 11 44  1  6  0  0  0
 12 24  1  0  0  0  0
 12 45  1  0  0  0  0
 12 46  1  0  0  0  0
 13 24  1  0  0  0  0
 13 14  1  0  0  0  0
 13 22  2  0  0  0  0
 14 15  1  0  0  0  0
 14 17  1  0  0  0  0
 14 48  1  6  0  0  0
 15 16  1  0  0  0  0
 15 49  1  0  0  0  0
 15 50  1  0  0  0  0
 16 17  1  0  0  0  0
 16 51  1  0  0  0  0
 16 52  1  0  0  0  0
 17 18  1  0  0  0  0
 17 19  1  0  0  0  0
 18 53  1  0  0  0  0
 18 54  1  0  0  0  0
 18 55  1  0  0  0  0
 19 56  1  0  0  0  0
 19 57  1  0  0  0  0
 19 58  1  0  0  0  0
 20 59  1  0  0  0  0
 20 60  1  0  0  0  0
 23 39  1  0  0  0  0
 24 47  1  0  0  0  0
M  END
>  <score>
0.42900806665420532

$$$$
PV-003535756285
 OpenBabel08202115463D

 38 40  0  0  0  0  0  0  0  0999 V2000
    4.8838    3.4474    1.9089 C   0  0  0  0  0  0  0  0  0  0  0  0
    1.5167    3.1011    0.9392 C   0  0  0  0  0  0  0  0  0  0  0  0
    1.8527    1.7413    0.8919 C   0  0  0  0  0  0  0  0  0  0  0  0
    0.9514    0.6055    0.5269 C   0  0  0  0  0  0  0  0  0  0  0  0
   -1.2148    0.1112   -0.5984 C   0  0  0  0  0  0  0  0  0  0  0  0
   -0.9963   -1.2356   -0.8069 C   0  0  0  0  0  0  0  0  0  0  0  0
   -3.0582   -1.4448   -1.7194 C   0  0  0  0  0  0  0  0  0  0  0  0
   -4.0887   -2.3029   -2.3436 C   0  0  0  0  0  0  0  0  0  0  0  0
   -4.5978   -4.3111   -3.2578 C   0  0  0  0  0  0  0  0  0  0  0  0
   -5.8963   -3.8952   -3.4717 C   0  0  0  0  0  0  0  0  0  0  0  0
   -6.2109   -2.6116   -3.0672 C   0  0  0  0  0  0  0  0  0  0  0  0
   -2.4377    0.6111   -1.0044 C   0  0  0  0  0  0  0  0  0  0  0  0
    3.1783    1.6838    1.2511 C   0  0  0  0  0  0  0  0  0  0  0  0
    3.8480    0.2338    3.6823 C   0  0  0  0  0  0  0  0  0  0  0  0
    3.5749    2.9562    1.4914 N   0  0  0  0  0  0  0  0  0  0  0  0
    2.5670    3.8451    1.2984 N   0  0  0  0  0  0  0  0  0  0  0  0
   -0.2429    0.9327   -0.0033 N   0  0  0  0  0  0  0  0  0  0  0  0
   -1.9137   -2.0362   -1.3691 N   0  0  0  0  0  0  0  0  0  0  0  0
   -3.6722   -3.5225   -2.6919 N   0  0  0  0  0  0  0  0  0  0  0  0
   -5.3104   -1.7929   -2.4981 N   0  0  0  0  0  0  0  0  0  0  0  0
   -3.3812   -0.1603   -1.5700 N   0  0  0  0  0  0  0  0  0  0  0  0
    1.3008   -0.5592    0.7092 O   0  0  0  0  0  0  0  0  0  0  0  0
    5.4869    0.5356    1.6310 O   0  0  0  0  0  0  0  0  0  0  0  0
    3.4831   -0.8919    1.3600 O   0  0  0  0  0  0  0  0  0  0  0  0
    4.0916    0.3092    1.8739 S   0  0  0  0  0  0  0  0  0  0  0  0
    5.6447    2.7872    1.5482 H   0  0  0  0  0  0  0  0  0  0  0  0
    4.9249    3.4885    2.9773 H   0  0  0  0  0  0  0  0  0  0  0  0
    5.0418    4.4265    1.5074 H   0  0  0  0  0  0  0  0  0  0  0  0
    0.5733    3.4815    0.7229 H   0  0  0  0  0  0  0  0  0  0  0  0
   -0.4672    1.8860    0.0312 H   0  0  0  0  0  0  0  0  0  0  0  0
   -0.0854   -1.6452   -0.5170 H   0  0  0  0  0  0  0  0  0  0  0  0
   -4.3266   -5.2728   -3.5464 H   0  0  0  0  0  0  0  0  0  0  0  0
   -6.6027   -4.5166   -3.9150 H   0  0  0  0  0  0  0  0  0  0  0  0
   -7.1817   -2.2663   -3.2089 H   0  0  0  0  0  0  0  0  0  0  0  0
   -2.6351    1.6229   -0.8668 H   0  0  0  0  0  0  0  0  0  0  0  0
    2.8030    0.2930    3.9047 H   0  0  0  0  0  0  0  0  0  0  0  0
    4.3578    1.0529    4.1450 H   0  0  0  0  0  0  0  0  0  0  0  0
    4.2404   -0.6886    4.0566 H   0  0  0  0  0  0  0  0  0  0  0  0
  1 15  1  0  0  0  0
  1 26  1  0  0  0  0
  1 27  1  0  0  0  0
  1 28  1  0  0  0  0
  2  3  1  0  0  0  0
  2 29  1  0  0  0  0
  2 16  2  0  0  0  0
  3  4  1  0  0  0  0
  3 13  2  0  0  0  0
  4 17  1  0  0  0  0
  4 22  2  0  0  0  0
  5 17  1  0  0  0  0
  5 12  1  0  0  0  0
  5  6  2  0  0  0  0
  6 18  1  0  0  0  0
  6 31  1  0  0  0  0
  7  8  1  0  0  0  0
  7 21  1  0  0  0  0
  7 18  2  0  0  0  0
  8 20  1  0  0  0  0
  8 19  2  0  0  0  0
  9 19  1  0  0  0  0
  9 32  1  0  0  0  0
  9 10  2  0  0  0  0
 10 11  1  0  0  0  0
 10 33  1  0  0  0  0
 11 34  1  0  0  0  0
 11 20  2  0  0  0  0
 12 35  1  0  0  0  0
 12 21  2  0  0  0  0
 13 15  1  0  0  0  0
 14 36  1  0  0  0  0
 14 37  1  0  0  0  0
 14 38  1  0  0  0  0
 15 16  1  0  0  0  0
 17 30  1  0  0  0  0
 25 13  1  0  0  0  0
 25 14  1  0  0  0  0
 25 23  2  0  0  0  0
 25 24  2  0  0  0  0
M  END
>  <score>
0.42903435230255127

$$$$
PV-004097782816
 OpenBabel08202115463D

 63 65  0  0  0  0  0  0  0  0999 V2000
    6.1339    0.6267    1.7060 C   0  0  0  0  0  0  0  0  0  0  0  0
    5.5899    0.4877    3.1063 C   0  0  0  0  0  0  0  0  0  0  0  0
    5.2000    1.7896    3.7895 C   0  0  0  0  0  0  0  0  0  0  0  0
    6.4442    2.6542    3.9325 C   0  0  0  0  0  0  0  0  0  0  0  0
    4.6498    1.4493    5.2130 C   0  0  0  0  0  0  0  0  0  0  0  0
    4.1355    2.5549    2.9686 C   0  0  0  0  0  0  0  0  0  0  0  0
    2.3931    2.5315    1.2727 C   0  0  2  0  0  0  0  0  0  0  0  0
    1.0338    1.8455    1.3649 C   0  0  0  0  0  0  0  0  0  0  0  0
    0.9622    1.7661   -0.1760 C   0  0  2  0  0  0  0  0  0  0  0  0
   -0.1878    2.4623   -0.9490 C   0  0  0  0  0  0  0  0  0  0  0  0
   -0.8229    1.1919   -1.4106 C   0  0  2  0  0  0  0  0  0  0  0  0
   -2.1147    0.8329   -0.7097 C   0  0  0  0  0  0  0  0  0  0  0  0
   -3.0844   -0.8644   -2.1790 C   0  0  0  0  0  0  0  0  0  0  0  0
   -3.3308   -2.3450   -2.3942 C   0  0  0  0  0  0  0  0  0  0  0  0
   -4.4042   -3.9650   -3.8329 C   0  0  0  0  0  0  0  0  0  0  0  0
   -5.4020   -4.4361   -2.7919 C   0  0  0  0  0  0  0  0  0  0  0  0
   -6.1928   -3.1799   -2.4411 C   0  0  2  0  0  0  0  0  0  0  0  0
   -7.6611   -3.3562   -2.8205 C   0  0  0  0  0  0  0  0  0  0  0  0
   -5.5775   -2.0567   -3.2403 C   0  0  0  0  0  0  0  0  0  0  0  0
    0.4828    0.4599   -0.8382 C   0  0  0  0  0  0  0  0  0  0  0  0
    2.3917    2.2206   -0.2308 C   0  0  0  0  0  0  0  0  0  0  0  0
    3.9197    3.7466    3.1726 O   0  0  0  0  0  0  0  0  0  0  0  0
   -3.4122   -0.0344   -3.0229 O   0  0  0  0  0  0  0  0  0  0  0  0
    3.4532    1.8747    2.0241 N   0  0  0  0  0  0  0  0  0  0  0  0
   -2.4958   -0.5356   -1.0255 N   0  0  0  0  0  0  0  0  0  0  0  0
   -4.2308   -2.5399   -3.5485 N   0  0  0  0  0  0  0  0  0  0  0  0
    5.3746    1.0248    1.0658 H   0  0  0  0  0  0  0  0  0  0  0  0
    6.4374   -0.3336    1.3446 H   0  0  0  0  0  0  0  0  0  0  0  0
    6.9754    1.2875    1.7146 H   0  0  0  0  0  0  0  0  0  0  0  0
    6.3387    0.0127    3.7050 H   0  0  0  0  0  0  0  0  0  0  0  0
    4.7205   -0.1344    3.0618 H   0  0  0  0  0  0  0  0  0  0  0  0
    7.0949    2.2252    4.6655 H   0  0  0  0  0  0  0  0  0  0  0  0
    6.1605    3.6389    4.2403 H   0  0  0  0  0  0  0  0  0  0  0  0
    6.9519    2.7064    2.9920 H   0  0  0  0  0  0  0  0  0  0  0  0
    5.3788    0.8802    5.7511 H   0  0  0  0  0  0  0  0  0  0  0  0
    3.7496    0.8784    5.1201 H   0  0  0  0  0  0  0  0  0  0  0  0
    4.4444    2.3564    5.7420 H   0  0  0  0  0  0  0  0  0  0  0  0
    3.6716    0.9366    1.8435 H   0  0  0  0  0  0  0  0  0  0  0  0
    2.3806    3.5748    1.5101 H   0  0  0  0  0  0  0  0  0  0  0  0
    0.2694    2.4504    1.8062 H   0  0  0  0  0  0  0  0  0  0  0  0
    1.0590    0.8919    1.8497 H   0  0  0  0  0  0  0  0  0  0  0  0
   -0.8261    3.0413   -0.3148 H   0  0  0  0  0  0  0  0  0  0  0  0
    0.1613    3.0715   -1.7565 H   0  0  0  0  0  0  0  0  0  0  0  0
   -0.9570    1.1130   -2.4692 H   0  0  0  0  0  0  0  0  0  0  0  0
   -2.8881    1.4983   -1.0323 H   0  0  0  0  0  0  0  0  0  0  0  0
   -1.9806    0.9270    0.3477 H   0  0  0  0  0  0  0  0  0  0  0  0
   -2.3144   -1.2405   -0.3693 H   0  0  0  0  0  0  0  0  0  0  0  0
   -3.7822   -2.7609   -1.5178 H   0  0  0  0  0  0  0  0  0  0  0  0
   -2.3991   -2.8361   -2.5835 H   0  0  0  0  0  0  0  0  0  0  0  0
   -4.7898   -4.1102   -4.8204 H   0  0  0  0  0  0  0  0  0  0  0  0
   -3.4758   -4.4873   -3.7316 H   0  0  0  0  0  0  0  0  0  0  0  0
   -6.0454   -5.1896   -3.1960 H   0  0  0  0  0  0  0  0  0  0  0  0
   -4.8985   -4.8212   -1.9299 H   0  0  0  0  0  0  0  0  0  0  0  0
   -6.1166   -2.9745   -1.3938 H   0  0  0  0  0  0  0  0  0  0  0  0
   -7.9922   -2.3463   -2.6966 H   0  0  0  0  0  0  0  0  0  0  0  0
   -8.1677   -4.0275   -2.1589 H   0  0  0  0  0  0  0  0  0  0  0  0
   -7.7761   -3.6943   -3.8291 H   0  0  0  0  0  0  0  0  0  0  0  0
   -5.5360   -1.1570   -2.6625 H   0  0  0  0  0  0  0  0  0  0  0  0
   -6.1329   -1.8796   -4.1376 H   0  0  0  0  0  0  0  0  0  0  0  0
    1.1411    0.0935   -1.5979 H   0  0  0  0  0  0  0  0  0  0  0  0
    0.2688   -0.3242   -0.1424 H   0  0  0  0  0  0  0  0  0  0  0  0
    2.5471    3.0802   -0.8487 H   0  0  0  0  0  0  0  0  0  0  0  0
    3.0784    1.4497   -0.5120 H   0  0  0  0  0  0  0  0  0  0  0  0
  1  2  1  0  0  0  0
  1 27  1  0  0  0  0
  1 28  1  0  0  0  0
  1 29  1  0  0  0  0
  2  3  1  0  0  0  0
  2 30  1  0  0  0  0
  2 31  1  0  0  0  0
  3  4  1  0  0  0  0
  3  5  1  0  0  0  0
  3  6  1  0  0  0  0
  4 32  1  0  0  0  0
  4 33  1  0  0  0  0
  4 34  1  0  0  0  0
  5 35  1  0  0  0  0
  5 36  1  0  0  0  0
  5 37  1  0  0  0  0
  6 24  1  0  0  0  0
  6 22  2  0  0  0  0
  7 24  1  0  0  0  0
  7  8  1  0  0  0  0
  7 21  1  0  0  0  0
  7 39  1  1  0  0  0
  8 40  1  0  0  0  0
  8 41  1  0  0  0  0
  9  8  1  1  0  0  0
  9 10  1  0  0  0  0
  9 20  1  0  0  0  0
  9 21  1  0  0  0  0
 10 11  1  0  0  0  0
 10 42  1  0  0  0  0
 10 43  1  0  0  0  0
 11 12  1  0  0  0  0
 11 20  1  0  0  0  0
 11 44  1  6  0  0  0
 12 25  1  0  0  0  0
 12 45  1  0  0  0  0
 12 46  1  0  0  0  0
 13 25  1  0  0  0  0
 13 14  1  0  0  0  0
 13 23  2  0  0  0  0
 14 26  1  0  0  0  0
 14 48  1  0  0  0  0
 14 49  1  0  0  0  0
 15 26  1  0  0  0  0
 15 16  1  0  0  0  0
 15 50  1  0  0  0  0
 15 51  1  0  0  0  0
 16 17  1  0  0  0  0
 16 52  1  0  0  0  0
 16 53  1  0  0  0  0
 17 18  1  0  0  0  0
 17 19  1  0  0  0  0
 17 54  1  1  0  0  0
 18 55  1  0  0  0  0
 18 56  1  0  0  0  0
 18 57  1  0  0  0  0
 19 26  1  0  0  0  0
 19 58  1  0  0  0  0
 19 59  1  0  0  0  0
 20 60  1  0  0  0  0
 20 61  1  0  0  0  0
 21 62  1  0  0  0  0
 21 63  1  0  0  0  0
 24 38  1  0  0  0  0
 25 47  1  0  0  0  0
M  END
>  <score>
0.42923498153686523

$$$$
PV-003970948894
 OpenBabel08202115463D

 56 57  0  0  0  0  0  0  0  0999 V2000
   -1.0383    1.8344   -1.7970 C   0  0  0  0  0  0  0  0  0  0  0  0
   -1.3299    0.8515   -0.6748 C   0  0  1  0  0  0  0  0  0  0  0  0
   -2.2376   -0.2591   -1.1673 C   0  0  0  0  0  0  0  0  0  0  0  0
   -3.4523    0.1901   -1.9411 C   0  0  0  0  0  0  0  0  0  0  0  0
   -5.4129   -0.7049   -3.0783 C   0  0  0  0  0  0  0  0  0  0  0  0
   -6.1880   -1.9030   -3.4887 C   0  0  0  0  0  0  0  0  0  0  0  0
   -5.5468   -3.0864   -3.7989 C   0  0  0  0  0  0  0  0  0  0  0  0
   -6.3007   -4.1494   -4.2646 C   0  0  0  0  0  0  0  0  0  0  0  0
   -8.2330   -2.9358   -4.1293 C   0  0  0  0  0  0  0  0  0  0  0  0
   -7.5584   -1.8268   -3.6553 C   0  0  0  0  0  0  0  0  0  0  0  0
   -0.0947    0.3289   -0.0242 C   0  0  0  0  0  0  0  0  0  0  0  0
    0.8785    1.3317    0.5343 C   0  0  0  0  0  0  0  0  0  0  0  0
    3.2121    1.3873    1.4109 C   0  0  0  0  0  0  0  0  0  0  0  0
    4.3101    0.4986    1.9328 C   0  0  1  0  0  0  0  0  0  0  0  0
    5.6449    0.8718    1.3092 C   0  0  0  0  0  0  0  0  0  0  0  0
    6.6409    0.2906    2.3186 C   0  0  0  0  0  0  0  0  0  0  0  0
    6.0233    0.5942    3.6865 C   0  0  0  0  0  0  0  0  0  0  0  0
    4.5143    0.7163    3.4359 C   0  0  0  0  0  0  0  0  0  0  0  0
    3.7569   -0.3479    4.2331 C   0  0  0  0  0  0  0  0  0  0  0  0
    4.0208    2.1055    3.8417 C   0  0  0  0  0  0  0  0  0  0  0  0
   -4.3145   -0.9271   -2.3309 N   0  0  0  0  0  0  0  0  0  0  0  0
   -7.6290   -4.0882   -4.4351 N   0  0  0  0  0  0  0  0  0  0  0  0
    2.1273    0.7128    0.9823 N   0  0  0  0  0  0  0  0  0  0  0  0
   -5.7699    0.4171   -3.4120 O   0  0  0  0  0  0  0  0  0  0  0  0
    3.3275    2.6098    1.3921 O   0  0  0  0  0  0  0  0  0  0  0  0
   -8.2620   -0.7134   -3.3736 F   0  0  0  0  0  0  0  0  0  0  0  0
   -0.5594    1.3220   -2.6051 H   0  0  0  0  0  0  0  0  0  0  0  0
   -0.3948    2.6086   -1.4345 H   0  0  0  0  0  0  0  0  0  0  0  0
   -1.9556    2.2645   -2.1414 H   0  0  0  0  0  0  0  0  0  0  0  0
   -1.8723    1.3880    0.0755 H   0  0  0  0  0  0  0  0  0  0  0  0
   -2.5752   -0.8111   -0.3151 H   0  0  0  0  0  0  0  0  0  0  0  0
   -1.6608   -0.8991   -1.8018 H   0  0  0  0  0  0  0  0  0  0  0  0
   -3.1273    0.6971   -2.8254 H   0  0  0  0  0  0  0  0  0  0  0  0
   -4.0179    0.8630   -1.3310 H   0  0  0  0  0  0  0  0  0  0  0  0
   -4.0920   -1.8384   -2.0474 H   0  0  0  0  0  0  0  0  0  0  0  0
   -4.5171   -3.1769   -3.6847 H   0  0  0  0  0  0  0  0  0  0  0  0
   -5.8131   -5.0390   -4.4935 H   0  0  0  0  0  0  0  0  0  0  0  0
   -9.2634   -2.8704   -4.2545 H   0  0  0  0  0  0  0  0  0  0  0  0
    0.4290   -0.2529   -0.7537 H   0  0  0  0  0  0  0  0  0  0  0  0
   -0.4015   -0.3027    0.7832 H   0  0  0  0  0  0  0  0  0  0  0  0
    0.4224    1.8252    1.3669 H   0  0  0  0  0  0  0  0  0  0  0  0
    1.1052    2.0496   -0.2261 H   0  0  0  0  0  0  0  0  0  0  0  0
    2.1781   -0.2658    0.9695 H   0  0  0  0  0  0  0  0  0  0  0  0
    4.0699   -0.5238    1.7281 H   0  0  0  0  0  0  0  0  0  0  0  0
    5.7515    1.9332    1.2250 H   0  0  0  0  0  0  0  0  0  0  0  0
    5.7624    0.4234    0.3448 H   0  0  0  0  0  0  0  0  0  0  0  0
    7.5961    0.7631    2.2220 H   0  0  0  0  0  0  0  0  0  0  0  0
    6.7486   -0.7647    2.1785 H   0  0  0  0  0  0  0  0  0  0  0  0
    6.2253   -0.2014    4.3729 H   0  0  0  0  0  0  0  0  0  0  0  0
    6.4128    1.5108    4.0776 H   0  0  0  0  0  0  0  0  0  0  0  0
    3.9059   -0.1834    5.2798 H   0  0  0  0  0  0  0  0  0  0  0  0
    4.1225   -1.3183    3.9693 H   0  0  0  0  0  0  0  0  0  0  0  0
    2.7128   -0.2862    4.0077 H   0  0  0  0  0  0  0  0  0  0  0  0
    4.0598    2.2014    4.9066 H   0  0  0  0  0  0  0  0  0  0  0  0
    3.0124    2.2368    3.5087 H   0  0  0  0  0  0  0  0  0  0  0  0
    4.6447    2.8503    3.3936 H   0  0  0  0  0  0  0  0  0  0  0  0
  1  2  1  0  0  0  0
  1 27  1  0  0  0  0
  1 28  1  0  0  0  0
  1 29  1  0  0  0  0
  2  3  1  0  0  0  0
  2 11  1  0  0  0  0
  2 30  1  1  0  0  0
  3  4  1  0  0  0  0
  3 31  1  0  0  0  0
  3 32  1  0  0  0  0
  4 21  1  0  0  0  0
  4 33  1  0  0  0  0
  4 34  1  0  0  0  0
  5 21  1  0  0  0  0
  5  6  1  0  0  0  0
  5 24  2  0  0  0  0
  6 10  1  0  0  0  0
  6  7  2  0  0  0  0
  7  8  1  0  0  0  0
  7 36  1  0  0  0  0
  8 37  1  0  0  0  0
  8 22  2  0  0  0  0
  9 22  1  0  0  0  0
  9 38  1  0  0  0  0
  9 10  2  0  0  0  0
 10 26  1  0  0  0  0
 11 12  1  0  0  0  0
 11 39  1  0  0  0  0
 11 40  1  0  0  0  0
 12 23  1  0  0  0  0
 12 41  1  0  0  0  0
 12 42  1  0  0  0  0
 13 23  1  0  0  0  0
 13 14  1  0  0  0  0
 13 25  2  0  0  0  0
 14 15  1  0  0  0  0
 14 18  1  0  0  0  0
 14 44  1  6  0  0  0
 15 16  1  0  0  0  0
 15 45  1  0  0  0  0
 15 46  1  0  0  0  0
 16 17  1  0  0  0  0
 16 47  1  0  0  0  0
 16 48  1  0  0  0  0
 17 18  1  0  0  0  0
 17 49  1  0  0  0  0
 17 50  1  0  0  0  0
 18 19  1  0  0  0  0
 18 20  1  0  0  0  0
 19 51  1  0  0  0  0
 19 52  1  0  0  0  0
 19 53  1  0  0  0  0
 20 54  1  0  0  0  0
 20 55  1  0  0  0  0
 20 56  1  0  0  0  0
 21 35  1  0  0  0  0
 23 43  1  0  0  0  0
M  END
>  <score>
0.42926687002182007

$$$$
Z4064196600
 OpenBabel08202115463D

 52 55  0  0  0  0  0  0  0  0999 V2000
    1.4591    0.6007    0.4371 O   0  0  0  0  0  0  0  0  0  0  0  0
   -2.6348   -3.0418   -2.0764 O   0  0  0  0  0  0  0  0  0  0  0  0
    1.1862    1.7410    0.0482 C   0  0  0  0  0  0  0  0  0  0  0  0
   -1.0667    1.1868   -0.8520 C   0  0  0  0  0  0  0  0  0  0  0  0
   -1.0192   -0.1354   -0.4522 C   0  0  0  0  0  0  0  0  0  0  0  0
   -2.1129   -0.9616   -0.6588 C   0  0  0  0  0  0  0  0  0  0  0  0
   -3.2489   -0.4646   -1.2694 C   0  0  0  0  0  0  0  0  0  0  0  0
   -4.9154   -3.2792   -3.5265 C   0  0  0  0  0  0  0  0  0  0  0  0
   -5.8242   -4.4457   -3.1214 C   0  0  0  0  0  0  0  0  0  0  0  0
   -6.1837   -4.2291   -1.6447 C   0  0  0  0  0  0  0  0  0  0  0  0
   -4.8865   -3.9130   -0.9130 C   0  0  0  0  0  0  0  0  0  0  0  0
   -3.2964    0.8614   -1.6704 C   0  0  0  0  0  0  0  0  0  0  0  0
   -2.2059    1.6853   -1.4645 C   0  0  0  0  0  0  0  0  0  0  0  0
    2.1064    2.8756    0.3140 C   0  0  0  0  0  0  0  0  0  0  0  0
    1.9275    4.1905   -0.0447 C   0  0  0  0  0  0  0  0  0  0  0  0
    3.2830    2.8581    1.0752 C   0  0  0  0  0  0  0  0  0  0  0  0
    3.9069    1.6287    1.6973 C   0  0  0  0  0  0  0  0  0  0  0  0
    3.6422    1.6337    3.1863 C   0  0  0  0  0  0  0  0  0  0  0  0
    4.3807    0.4915    3.8679 C   0  0  0  0  0  0  0  0  0  0  0  0
    6.0827    0.4998    2.1705 C   0  0  0  0  0  0  0  0  0  0  0  0
    5.3949    1.6351    1.4307 C   0  0  0  0  0  0  0  0  0  0  0  0
    0.0473    2.0313   -0.6363 N   0  0  0  0  0  0  0  0  0  0  0  0
   -4.2741   -1.3409   -1.6453 N   0  0  0  0  0  0  0  0  0  0  0  0
    2.9586    4.8866    0.4903 N   0  0  0  0  0  0  0  0  0  0  0  0
    3.8015    4.0844    1.1898 N   0  0  0  0  0  0  0  0  0  0  0  0
    5.8137    0.5693    3.6037 N   0  0  0  0  0  0  0  0  0  0  0  0
   -4.0404   -2.7881   -2.0072 S   0  0  0  0  0  0  0  0  0  0  0  0
   -0.0079    2.9292   -1.0249 H   0  0  0  0  0  0  0  0  0  0  0  0
   -0.1629   -0.5104    0.0037 H   0  0  0  0  0  0  0  0  0  0  0  0
   -2.0788   -1.9554   -0.3543 H   0  0  0  0  0  0  0  0  0  0  0  0
   -4.2173   -3.5923   -4.2746 H   0  0  0  0  0  0  0  0  0  0  0  0
   -5.4988   -2.4642   -3.9012 H   0  0  0  0  0  0  0  0  0  0  0  0
   -5.3081   -5.3751   -3.2431 H   0  0  0  0  0  0  0  0  0  0  0  0
   -6.7107   -4.4483   -3.7206 H   0  0  0  0  0  0  0  0  0  0  0  0
   -6.8679   -3.4120   -1.5492 H   0  0  0  0  0  0  0  0  0  0  0  0
   -6.6270   -5.1152   -1.2407 H   0  0  0  0  0  0  0  0  0  0  0  0
   -4.3097   -4.8012   -0.7599 H   0  0  0  0  0  0  0  0  0  0  0  0
   -5.0850   -3.4491    0.0306 H   0  0  0  0  0  0  0  0  0  0  0  0
   -4.1526    1.2365   -2.1263 H   0  0  0  0  0  0  0  0  0  0  0  0
   -2.2401    2.6791   -1.7689 H   0  0  0  0  0  0  0  0  0  0  0  0
    1.1497    4.5765   -0.6171 H   0  0  0  0  0  0  0  0  0  0  0  0
    3.0816    5.8531    0.3852 H   0  0  0  0  0  0  0  0  0  0  0  0
    3.4744    0.7508    1.2647 H   0  0  0  0  0  0  0  0  0  0  0  0
    3.9754    2.5630    3.5990 H   0  0  0  0  0  0  0  0  0  0  0  0
    2.5916    1.5236    3.3565 H   0  0  0  0  0  0  0  0  0  0  0  0
    4.2153    0.5477    4.9236 H   0  0  0  0  0  0  0  0  0  0  0  0
    4.0058   -0.4393    3.4967 H   0  0  0  0  0  0  0  0  0  0  0  0
    6.2635   -0.1775    4.0513 H   0  0  0  0  0  0  0  0  0  0  0  0
    7.1384    0.5664    2.0093 H   0  0  0  0  0  0  0  0  0  0  0  0
    5.7217   -0.4336    1.7919 H   0  0  0  0  0  0  0  0  0  0  0  0
    5.5630    1.5212    0.3802 H   0  0  0  0  0  0  0  0  0  0  0  0
    5.8056    2.5669    1.7592 H   0  0  0  0  0  0  0  0  0  0  0  0
  3 22  1  0  0  0  0
  3 14  1  0  0  0  0
  3  1  2  0  0  0  0
  4 22  1  0  0  0  0
  4 13  1  0  0  0  0
  4  5  2  0  0  0  0
  5  6  1  0  0  0  0
  5 29  1  0  0  0  0
  6 30  1  0  0  0  0
  6  7  2  0  0  0  0
  7 23  1  0  0  0  0
  7 12  1  0  0  0  0
  8  9  1  0  0  0  0
  8 31  1  0  0  0  0
  8 32  1  0  0  0  0
  9 10  1  0  0  0  0
  9 33  1  0  0  0  0
  9 34  1  0  0  0  0
 10 11  1  0  0  0  0
 10 35  1  0  0  0  0
 10 36  1  0  0  0  0
 11 37  1  0  0  0  0
 11 38  1  0  0  0  0
 12 39  1  0  0  0  0
 12 13  2  0  0  0  0
 13 40  1  0  0  0  0
 14 16  1  0  0  0  0
 14 15  2  0  0  0  0
 15 24  1  0  0  0  0
 15 41  1  0  0  0  0
 16 17  1  0  0  0  0
 16 25  2  0  0  0  0
 17 18  1  0  0  0  0
 17 21  1  0  0  0  0
 17 43  1  0  0  0  0
 18 19  1  0  0  0  0
 18 44  1  0  0  0  0
 18 45  1  0  0  0  0
 19 26  1  0  0  0  0
 19 46  1  0  0  0  0
 19 47  1  0  0  0  0
 20 26  1  0  0  0  0
 20 21  1  0  0  0  0
 20 49  1  0  0  0  0
 20 50  1  0  0  0  0
 21 51  1  0  0  0  0
 21 52  1  0  0  0  0
 22 28  1  0  0  0  0
 24 25  1  0  0  0  0
 24 42  1  0  0  0  0
 26 48  1  0  0  0  0
 27  8  1  0  0  0  0
 27 11  1  0  0  0  0
 27 23  2  0  0  0  0
 27  2  2  0  0  0  0
M  END
>  <score>
0.42940491437911987

$$$$
PV-004120016648
 OpenBabel08202115463D

 52 53  0  0  0  0  0  0  0  0999 V2000
    6.3510    2.4854    3.7411 C   0  0  0  0  0  0  0  0  0  0  0  0
    5.6477    1.1386    3.6986 C   0  0  0  0  0  0  0  0  0  0  0  0
    6.5315    0.0461    3.1191 C   0  0  0  0  0  0  0  0  0  0  0  0
    3.1506    0.9788    3.3243 C   0  0  0  0  0  0  0  0  0  0  0  0
    3.1308    1.5979    1.3424 C   0  0  0  0  0  0  0  0  0  0  0  0
    2.5873    1.9577   -0.0149 C   0  0  0  0  0  0  0  0  0  0  0  0
    0.4863    2.2430   -1.2709 C   0  0  0  0  0  0  0  0  0  0  0  0
   -0.8672    1.5869   -1.0174 C   0  0  1  0  0  0  0  0  0  0  0  0
   -0.4983    0.1603   -0.6260 C   0  0  2  0  0  0  0  0  0  0  0  0
   -1.6109   -0.4827    0.1698 C   0  0  0  0  0  0  0  0  0  0  0  0
   -3.3257   -1.4738   -1.2968 C   0  0  0  0  0  0  0  0  0  0  0  0
   -4.7020   -1.3780   -1.8990 C   0  0  0  0  0  0  0  0  0  0  0  0
   -5.1568   -2.6050   -2.6970 C   0  0  0  0  0  0  0  0  0  0  0  0
   -4.0383   -3.0829   -3.6667 C   0  0  0  0  0  0  0  0  0  0  0  0
   -6.4366   -2.2442   -3.4523 C   0  0  0  0  0  0  0  0  0  0  0  0
   -5.4445   -3.6910   -1.7566 C   0  0  0  0  0  0  0  0  0  0  0  0
    0.7621    0.3239    0.2335 C   0  0  0  0  0  0  0  0  0  0  0  0
    4.4004    1.2371    2.9480 N   0  0  0  0  0  0  0  0  0  0  0  0
    2.3102    1.1967    2.3296 N   0  0  0  0  0  0  0  0  0  0  0  0
    1.3506    1.5765   -0.2736 N   0  0  0  0  0  0  0  0  0  0  0  0
   -2.8952   -0.4490   -0.5321 N   0  0  0  0  0  0  0  0  0  0  0  0
   -5.6188   -4.5367   -1.0168 N   0  0  0  0  0  0  0  0  0  0  0  0
    4.4130    1.6485    1.6523 N   0  0  0  0  0  0  0  0  0  0  0  0
    3.2757    2.5749   -0.8254 O   0  0  0  0  0  0  0  0  0  0  0  0
   -1.5635    2.2441    0.0425 O   0  0  0  0  0  0  0  0  0  0  0  0
   -2.6163   -2.4587   -1.4976 O   0  0  0  0  0  0  0  0  0  0  0  0
    7.2251    2.4127    4.3539 H   0  0  0  0  0  0  0  0  0  0  0  0
    5.6893    3.2203    4.1499 H   0  0  0  0  0  0  0  0  0  0  0  0
    6.6336    2.7714    2.7495 H   0  0  0  0  0  0  0  0  0  0  0  0
    5.4110    0.8643    4.7054 H   0  0  0  0  0  0  0  0  0  0  0  0
    6.9026    0.3557    2.1644 H   0  0  0  0  0  0  0  0  0  0  0  0
    5.9604   -0.8515    3.0054 H   0  0  0  0  0  0  0  0  0  0  0  0
    7.3537   -0.1349    3.7795 H   0  0  0  0  0  0  0  0  0  0  0  0
    2.8738    0.6505    4.2715 H   0  0  0  0  0  0  0  0  0  0  0  0
    0.4428    3.2987   -1.1020 H   0  0  0  0  0  0  0  0  0  0  0  0
    0.8277    2.0544   -2.2673 H   0  0  0  0  0  0  0  0  0  0  0  0
   -1.4698    1.5978   -1.9015 H   0  0  0  0  0  0  0  0  0  0  0  0
   -0.9297    2.6195    0.6580 H   0  0  0  0  0  0  0  0  0  0  0  0
   -0.2923   -0.4306   -1.4939 H   0  0  0  0  0  0  0  0  0  0  0  0
   -1.7139    0.0389    1.0984 H   0  0  0  0  0  0  0  0  0  0  0  0
   -1.3509   -1.5030    0.3602 H   0  0  0  0  0  0  0  0  0  0  0  0
   -3.4620    0.3456   -0.4434 H   0  0  0  0  0  0  0  0  0  0  0  0
   -4.7169   -0.5332   -2.5555 H   0  0  0  0  0  0  0  0  0  0  0  0
   -5.4005   -1.2243   -1.1032 H   0  0  0  0  0  0  0  0  0  0  0  0
   -3.6318   -2.2403   -4.1861 H   0  0  0  0  0  0  0  0  0  0  0  0
   -4.4502   -3.7725   -4.3736 H   0  0  0  0  0  0  0  0  0  0  0  0
   -3.2636   -3.5646   -3.1075 H   0  0  0  0  0  0  0  0  0  0  0  0
   -6.7066   -3.0498   -4.1027 H   0  0  0  0  0  0  0  0  0  0  0  0
   -6.2717   -1.3592   -4.0306 H   0  0  0  0  0  0  0  0  0  0  0  0
   -7.2270   -2.0712   -2.7521 H   0  0  0  0  0  0  0  0  0  0  0  0
    1.4315   -0.4992    0.0942 H   0  0  0  0  0  0  0  0  0  0  0  0
    0.5117    0.4091    1.2703 H   0  0  0  0  0  0  0  0  0  0  0  0
  1  2  1  0  0  0  0
  1 27  1  0  0  0  0
  1 28  1  0  0  0  0
  1 29  1  0  0  0  0
  2  3  1  0  0  0  0
  2 18  1  0  0  0  0
  2 30  1  0  0  0  0
  3 31  1  0  0  0  0
  3 32  1  0  0  0  0
  3 33  1  0  0  0  0
  4 18  1  0  0  0  0
  4 34  1  0  0  0  0
  4 19  2  0  0  0  0
  5 19  1  0  0  0  0
  5  6  1  0  0  0  0
  5 23  2  0  0  0  0
  6 20  1  0  0  0  0
  6 24  2  0  0  0  0
  7 20  1  0  0  0  0
  7  8  1  0  0  0  0
  7 35  1  0  0  0  0
  7 36  1  0  0  0  0
  8 25  1  0  0  0  0
  8  9  1  0  0  0  0
  8 37  1  6  0  0  0
  9 10  1  0  0  0  0
  9 17  1  0  0  0  0
  9 39  1  6  0  0  0
 10 21  1  0  0  0  0
 10 40  1  0  0  0  0
 10 41  1  0  0  0  0
 11 21  1  0  0  0  0
 11 12  1  0  0  0  0
 11 26  2  0  0  0  0
 12 13  1  0  0  0  0
 12 43  1  0  0  0  0
 12 44  1  0  0  0  0
 13 14  1  0  0  0  0
 13 15  1  0  0  0  0
 13 16  1  0  0  0  0
 14 45  1  0  0  0  0
 14 46  1  0  0  0  0
 14 47  1  0  0  0  0
 15 48  1  0  0  0  0
 15 49  1  0  0  0  0
 15 50  1  0  0  0  0
 16 22  3  0  0  0  0
 17 20  1  0  0  0  0
 17 51  1  0  0  0  0
 17 52  1  0  0  0  0
 18 23  1  0  0  0  0
 21 42  1  0  0  0  0
 25 38  1  0  0  0  0
M  END
>  <score>
0.42951858043670654

$$$$
PV-004090271285
 OpenBabel08202115463D

 56 58  0  0  0  0  0  0  0  0999 V2000
   -3.9180   -4.0718   -2.0130 C   0  0  0  0  0  0  0  0  0  0  0  0
   -4.5480   -3.0277   -2.9392 C   0  0  1  0  0  0  0  0  0  0  0  0
   -6.0917   -3.1334   -2.8504 C   0  0  0  0  0  0  0  0  0  0  0  0
   -6.7460   -1.9078   -3.4685 C   0  0  0  0  0  0  0  0  0  0  0  0
   -6.3868   -0.6705   -2.6543 C   0  0  0  0  0  0  0  0  0  0  0  0
   -4.2112    0.4719   -2.0079 C   0  0  0  0  0  0  0  0  0  0  0  0
   -2.9339    0.0459   -1.8925 C   0  0  0  0  0  0  0  0  0  0  0  0
   -1.7870    0.8883   -1.4720 C   0  0  0  0  0  0  0  0  0  0  0  0
    0.6320    1.1284   -1.1355 C   0  0  0  0  0  0  0  0  0  0  0  0
    0.8217    1.0398    0.3578 C   0  0  0  0  0  0  0  0  0  0  0  0
    2.1211    3.0090    1.1701 C   0  0  0  0  0  0  0  0  0  0  0  0
    3.1924    0.8407    0.7485 C   0  0  0  0  0  0  0  0  0  0  0  0
    4.4815    1.5062    1.1161 C   0  0  1  0  0  0  0  0  0  0  0  0
    4.4259    2.0049    2.5447 C   0  0  0  0  0  0  0  0  0  0  0  0
    5.0713    0.8896    3.3298 C   0  0  0  0  0  0  0  0  0  0  0  0
    4.0629   -0.2146    3.6549 C   0  0  0  0  0  0  0  0  0  0  0  0
    5.6935    1.4137    4.6302 C   0  0  0  0  0  0  0  0  0  0  0  0
    6.1331    0.3967    2.3754 C   0  0  0  0  0  0  0  0  0  0  0  0
   -4.0882   -1.6594   -2.5256 C   0  0  0  0  0  0  0  0  0  0  0  0
   -4.9452   -0.6123   -2.4090 N   0  0  0  0  0  0  0  0  0  0  0  0
   -0.5508    0.3969   -1.5961 N   0  0  0  0  0  0  0  0  0  0  0  0
    2.1007    1.6016    0.7957 N   0  0  0  0  0  0  0  0  0  0  0  0
   -2.8579   -1.2894   -2.2244 N   0  0  0  0  0  0  0  0  0  0  0  0
   -1.9747    2.0212   -1.0165 O   0  0  0  0  0  0  0  0  0  0  0  0
    3.2303   -0.3456    0.4329 O   0  0  0  0  0  0  0  0  0  0  0  0
    5.5646    0.5594    1.0632 O   0  0  0  0  0  0  0  0  0  0  0  0
   -4.1193   -5.0524   -2.3909 H   0  0  0  0  0  0  0  0  0  0  0  0
   -4.3342   -3.9755   -1.0320 H   0  0  0  0  0  0  0  0  0  0  0  0
   -2.8601   -3.9171   -1.9690 H   0  0  0  0  0  0  0  0  0  0  0  0
   -4.2403   -3.2124   -3.9472 H   0  0  0  0  0  0  0  0  0  0  0  0
   -6.4155   -4.0077   -3.3753 H   0  0  0  0  0  0  0  0  0  0  0  0
   -6.3810   -3.2062   -1.8228 H   0  0  0  0  0  0  0  0  0  0  0  0
   -6.3972   -1.7866   -4.4728 H   0  0  0  0  0  0  0  0  0  0  0  0
   -7.8084   -2.0353   -3.4723 H   0  0  0  0  0  0  0  0  0  0  0  0
   -6.9012   -0.7058   -1.7167 H   0  0  0  0  0  0  0  0  0  0  0  0
   -6.6866    0.2037   -3.1935 H   0  0  0  0  0  0  0  0  0  0  0  0
   -4.5663    1.4327   -1.8279 H   0  0  0  0  0  0  0  0  0  0  0  0
   -0.4311   -0.4835   -2.0097 H   0  0  0  0  0  0  0  0  0  0  0  0
    0.5258    2.1579   -1.4072 H   0  0  0  0  0  0  0  0  0  0  0  0
    1.4964    0.7197   -1.6158 H   0  0  0  0  0  0  0  0  0  0  0  0
    0.7819    0.0107    0.6480 H   0  0  0  0  0  0  0  0  0  0  0  0
    0.0295    1.5768    0.8365 H   0  0  0  0  0  0  0  0  0  0  0  0
    2.0609    3.0962    2.2348 H   0  0  0  0  0  0  0  0  0  0  0  0
    1.2867    3.5086    0.7238 H   0  0  0  0  0  0  0  0  0  0  0  0
    3.0305    3.4560    0.8267 H   0  0  0  0  0  0  0  0  0  0  0  0
    4.6671    2.3198    0.4463 H   0  0  0  0  0  0  0  0  0  0  0  0
    4.9749    2.9169    2.6534 H   0  0  0  0  0  0  0  0  0  0  0  0
    3.4141    2.1575    2.8577 H   0  0  0  0  0  0  0  0  0  0  0  0
    3.5769   -0.5076    2.7478 H   0  0  0  0  0  0  0  0  0  0  0  0
    3.3376    0.1524    4.3507 H   0  0  0  0  0  0  0  0  0  0  0  0
    4.5719   -1.0547    4.0793 H   0  0  0  0  0  0  0  0  0  0  0  0
    6.2566    2.3001    4.4248 H   0  0  0  0  0  0  0  0  0  0  0  0
    6.3407    0.6676    5.0416 H   0  0  0  0  0  0  0  0  0  0  0  0
    4.9171    1.6391    5.3312 H   0  0  0  0  0  0  0  0  0  0  0  0
    7.0251    0.9796    2.4729 H   0  0  0  0  0  0  0  0  0  0  0  0
    6.3571   -0.6328    2.5624 H   0  0  0  0  0  0  0  0  0  0  0  0
  1  2  1  0  0  0  0
  1 27  1  0  0  0  0
  1 28  1  0  0  0  0
  1 29  1  0  0  0  0
  2  3  1  0  0  0  0
  2 19  1  0  0  0  0
  2 30  1  6  0  0  0
  3  4  1  0  0  0  0
  3 31  1  0  0  0  0
  3 32  1  0  0  0  0
  4  5  1  0  0  0  0
  4 33  1  0  0  0  0
  4 34  1  0  0  0  0
  5 20  1  0  0  0  0
  5 35  1  0  0  0  0
  5 36  1  0  0  0  0
  6 20  1  0  0  0  0
  6 37  1  0  0  0  0
  6  7  2  0  0  0  0
  7  8  1  0  0  0  0
  7 23  1  0  0  0  0
  8 21  1  0  0  0  0
  8 24  2  0  0  0  0
  9 21  1  0  0  0  0
  9 10  1  0  0  0  0
  9 39  1  0  0  0  0
  9 40  1  0  0  0  0
 10 22  1  0  0  0  0
 10 41  1  0  0  0  0
 10 42  1  0  0  0  0
 11 22  1  0  0  0  0
 11 43  1  0  0  0  0
 11 44  1  0  0  0  0
 11 45  1  0  0  0  0
 12 22  1  0  0  0  0
 12 13  1  0  0  0  0
 12 25  2  0  0  0  0
 13 14  1  0  0  0  0
 13 26  1  0  0  0  0
 13 46  1  6  0  0  0
 14 15  1  0  0  0  0
 14 47  1  0  0  0  0
 14 48  1  0  0  0  0
 15 16  1  0  0  0  0
 15 17  1  0  0  0  0
 15 18  1  0  0  0  0
 16 49  1  0  0  0  0
 16 50  1  0  0  0  0
 16 51  1  0  0  0  0
 17 52  1  0  0  0  0
 17 53  1  0  0  0  0
 17 54  1  0  0  0  0
 18 26  1  0  0  0  0
 18 55  1  0  0  0  0
 18 56  1  0  0  0  0
 19 20  1  0  0  0  0
 19 23  2  0  0  0  0
 21 38  1  0  0  0  0
M  END
>  <score>
0.42963385581970215

$$$$
Z4228384327
 OpenBabel08202115463D

 48 51  0  0  0  0  0  0  0  0999 V2000
   -0.0097   -0.8062    1.3964 C   0  0  0  0  0  0  0  0  0  0  0  0
   -0.9629   -0.1535    0.3889 C   0  0  0  0  0  0  0  0  0  0  0  0
   -1.0154    1.1601    0.0348 C   0  0  0  0  0  0  0  0  0  0  0  0
   -0.1735    2.3105    0.5207 C   0  0  0  0  0  0  0  0  0  0  0  0
    1.6045    0.7492    1.0730 C   0  0  1  0  0  0  0  0  0  0  0  0
    2.2999    0.6071   -0.2794 C   0  0  0  0  0  0  0  0  0  0  0  0
    3.7177    1.0935    0.0039 C   0  0  0  0  0  0  0  0  0  0  0  0
    5.0352    1.3402    2.0038 C   0  0  0  0  0  0  0  0  0  0  0  0
    4.6672    1.8613    3.4059 C   0  0  0  0  0  0  0  0  0  0  0  0
    6.1144    0.5040    2.7172 C   0  0  0  0  0  0  0  0  0  0  0  0
    2.7325    0.6092    2.1134 C   0  0  0  0  0  0  0  0  0  0  0  0
   -2.6086   -0.2989   -1.0561 C   0  0  0  0  0  0  0  0  0  0  0  0
   -3.6698   -0.9414   -1.8633 C   0  0  0  0  0  0  0  0  0  0  0  0
   -4.2641   -0.2933   -2.9350 C   0  0  0  0  0  0  0  0  0  0  0  0
   -5.2558   -0.9256   -3.6610 C   0  0  0  0  0  0  0  0  0  0  0  0
   -5.6524   -2.2095   -3.3211 C   0  0  0  0  0  0  0  0  0  0  0  0
   -6.7803   -2.8638   -4.0400 C   0  0  0  0  0  0  0  0  0  0  0  0
   -5.0597   -2.8555   -2.2526 C   0  0  0  0  0  0  0  0  0  0  0  0
   -4.0651   -2.2217   -1.5243 C   0  0  0  0  0  0  0  0  0  0  0  0
   -0.5734    3.4477    0.2787 O   0  0  0  0  0  0  0  0  0  0  0  0
    6.0129    1.4810    3.7726 O   0  0  0  0  0  0  0  0  0  0  0  0
    0.9581    2.0609    1.1858 N   0  0  0  0  0  0  0  0  0  0  0  0
    3.9663    0.5448    1.3252 N   0  0  1  0  0  0  0  0  0  0  0  0
   -1.8660   -0.9785   -0.2282 N   0  0  0  0  0  0  0  0  0  0  0  0
   -2.2534    1.3910   -1.1292 S   0  0  0  0  0  0  0  0  0  0  0  0
   -7.9486   -2.4880   -3.5113 F   0  0  0  0  0  0  0  0  0  0  0  0
   -6.7490   -4.2005   -3.8416 F   0  0  0  0  0  0  0  0  0  0  0  0
   -0.2813   -0.5107    2.3883 H   0  0  0  0  0  0  0  0  0  0  0  0
    0.9929   -0.4929    1.1931 H   0  0  0  0  0  0  0  0  0  0  0  0
   -0.0755   -1.8708    1.3112 H   0  0  0  0  0  0  0  0  0  0  0  0
    1.3570    2.7557    1.7501 H   0  0  0  0  0  0  0  0  0  0  0  0
    0.8738   -0.0215    1.2036 H   0  0  0  0  0  0  0  0  0  0  0  0
    2.3020   -0.4124   -0.6042 H   0  0  0  0  0  0  0  0  0  0  0  0
    1.8262    1.2170   -1.0201 H   0  0  0  0  0  0  0  0  0  0  0  0
    4.4115    0.7082   -0.7138 H   0  0  0  0  0  0  0  0  0  0  0  0
    3.7679    2.1623    0.0111 H   0  0  0  0  0  0  0  0  0  0  0  0
    5.4105    2.0821    1.3302 H   0  0  0  0  0  0  0  0  0  0  0  0
    4.4609    2.9098    3.4608 H   0  0  0  0  0  0  0  0  0  0  0  0
    3.8907    1.3180    3.9026 H   0  0  0  0  0  0  0  0  0  0  0  0
    5.8152   -0.4873    2.9867 H   0  0  0  0  0  0  0  0  0  0  0  0
    7.0620    0.4688    2.2215 H   0  0  0  0  0  0  0  0  0  0  0  0
    2.6059   -0.2846    2.6879 H   0  0  0  0  0  0  0  0  0  0  0  0
    2.7479    1.4554    2.7681 H   0  0  0  0  0  0  0  0  0  0  0  0
   -3.9639    0.6685   -3.1926 H   0  0  0  0  0  0  0  0  0  0  0  0
   -5.7046   -0.4379   -4.4625 H   0  0  0  0  0  0  0  0  0  0  0  0
   -6.7232   -2.6230   -5.0810 H   0  0  0  0  0  0  0  0  0  0  0  0
   -5.3600   -3.8173   -1.9950 H   0  0  0  0  0  0  0  0  0  0  0  0
   -3.6164   -2.7094   -0.7228 H   0  0  0  0  0  0  0  0  0  0  0  0
  1  2  1  0  0  0  0
  1 28  1  0  0  0  0
  1 29  1  0  0  0  0
  1 30  1  0  0  0  0
  2 24  1  0  0  0  0
  2  3  2  0  0  0  0
  3  4  1  0  0  0  0
  3 25  1  0  0  0  0
  4 22  1  0  0  0  0
  4 20  2  0  0  0  0
  5 22  1  0  0  0  0
  5  6  1  0  0  0  0
  5 11  1  0  0  0  0
  5 32  1  1  0  0  0
  6  7  1  0  0  0  0
  6 33  1  0  0  0  0
  6 34  1  0  0  0  0
  7 23  1  0  0  0  0
  7 35  1  0  0  0  0
  7 36  1  0  0  0  0
  8  9  1  0  0  0  0
  8 10  1  0  0  0  0
  8 37  1  0  0  0  0
  9 21  1  0  0  0  0
  9 38  1  0  0  0  0
  9 39  1  0  0  0  0
 10 21  1  0  0  0  0
 10 40  1  0  0  0  0
 10 41  1  0  0  0  0
 11 23  1  0  0  0  0
 11 42  1  0  0  0  0
 11 43  1  0  0  0  0
 12 25  1  0  0  0  0
 12 13  1  0  0  0  0
 12 24  2  0  0  0  0
 13 19  1  0  0  0  0
 13 14  2  0  0  0  0
 14 15  1  0  0  0  0
 14 44  1  0  0  0  0
 15 45  1  0  0  0  0
 15 16  2  0  0  0  0
 16 17  1  0  0  0  0
 16 18  1  0  0  0  0
 17 26  1  0  0  0  0
 17 27  1  0  0  0  0
 17 46  1  0  0  0  0
 18 47  1  0  0  0  0
 18 19  2  0  0  0  0
 19 48  1  0  0  0  0
 22 31  1  0  0  0  0
 23  8  1  1  0  0  0
M  END
>  <score>
0.42971765995025635

$$$$
Z4348238767
 OpenBabel08202115463D

 41 42  0  0  0  0  0  0  0  0999 V2000
   -6.8273   -3.0660   -3.7943 C   0  0  0  0  0  0  0  0  0  0  0  0
   -4.8137   -2.4434   -2.6847 C   0  0  0  0  0  0  0  0  0  0  0  0
   -3.4694   -2.7062   -2.3990 C   0  0  0  0  0  0  0  0  0  0  0  0
   -2.8124   -1.8227   -1.5829 C   0  0  0  0  0  0  0  0  0  0  0  0
   -3.5363   -0.7236   -1.1049 C   0  0  0  0  0  0  0  0  0  0  0  0
   -2.9151    0.2977   -0.1972 C   0  0  0  0  0  0  0  0  0  0  0  0
   -1.4305    0.1340    0.0078 C   0  0  0  0  0  0  0  0  0  0  0  0
    0.7149    1.3951   -0.0119 C   0  0  0  0  0  0  0  0  0  0  0  0
    1.3214    0.5844    0.9289 C   0  0  0  0  0  0  0  0  0  0  0  0
    2.6664    0.7486    1.2212 C   0  0  0  0  0  0  0  0  0  0  0  0
    3.3997    1.7263    0.5759 C   0  0  0  0  0  0  0  0  0  0  0  0
    4.8509    1.9410    0.8652 C   0  0  0  0  0  0  0  0  0  0  0  0
    4.5126    0.9329    3.0870 C   0  0  0  0  0  0  0  0  0  0  0  0
    5.3469    0.2830    4.1917 C   0  0  0  0  0  0  0  0  0  0  0  0
    2.7913    2.5394   -0.3676 C   0  0  0  0  0  0  0  0  0  0  0  0
    1.4502    2.3759   -0.6592 C   0  0  0  0  0  0  0  0  0  0  0  0
   -5.4535   -3.3372   -3.4757 O   0  0  0  0  0  0  0  0  0  0  0  0
   -0.9522   -0.9363    0.3455 O   0  0  0  0  0  0  0  0  0  0  0  0
    5.5543    2.6155    0.1060 O   0  0  0  0  0  0  0  0  0  0  0  0
   -0.6781    1.2465   -0.2073 N   0  0  0  0  0  0  0  0  0  0  0  0
    5.3233    1.3750    1.9621 N   0  0  0  0  0  0  0  0  0  0  0  0
   -4.8115   -0.5072   -1.4166 N   0  0  0  0  0  0  0  0  0  0  0  0
   -5.4607   -1.3788   -2.2191 N   0  0  0  0  0  0  0  0  0  0  0  0
    5.7664   -0.9193    3.7938 F   0  0  0  0  0  0  0  0  0  0  0  0
    4.6576    0.1141    5.3093 F   0  0  0  0  0  0  0  0  0  0  0  0
    6.4297    1.0061    4.4849 F   0  0  0  0  0  0  0  0  0  0  0  0
   -7.4303   -3.9062   -3.5196 H   0  0  0  0  0  0  0  0  0  0  0  0
   -6.9211   -2.8885   -4.8453 H   0  0  0  0  0  0  0  0  0  0  0  0
   -7.1542   -2.2014   -3.2555 H   0  0  0  0  0  0  0  0  0  0  0  0
   -2.9872   -3.5401   -2.7910 H   0  0  0  0  0  0  0  0  0  0  0  0
   -1.8140   -1.9633   -1.3283 H   0  0  0  0  0  0  0  0  0  0  0  0
   -3.3933    0.2303    0.7576 H   0  0  0  0  0  0  0  0  0  0  0  0
   -3.0894    1.2666   -0.6163 H   0  0  0  0  0  0  0  0  0  0  0  0
   -1.1564    2.0364   -0.5356 H   0  0  0  0  0  0  0  0  0  0  0  0
    0.7687   -0.1488    1.4175 H   0  0  0  0  0  0  0  0  0  0  0  0
    3.1238    0.1359    1.9262 H   0  0  0  0  0  0  0  0  0  0  0  0
    6.2925    1.2431    2.0226 H   0  0  0  0  0  0  0  0  0  0  0  0
    3.7962    0.2206    2.7343 H   0  0  0  0  0  0  0  0  0  0  0  0
    4.0025    1.7800    3.4959 H   0  0  0  0  0  0  0  0  0  0  0  0
    3.3440    3.2725   -0.8561 H   0  0  0  0  0  0  0  0  0  0  0  0
    0.9928    2.9885   -1.3642 H   0  0  0  0  0  0  0  0  0  0  0  0
  1 17  1  0  0  0  0
  1 27  1  0  0  0  0
  1 28  1  0  0  0  0
  1 29  1  0  0  0  0
  2 17  1  0  0  0  0
  2 23  1  0  0  0  0
  2  3  2  0  0  0  0
  3  4  1  0  0  0  0
  3 30  1  0  0  0  0
  4 31  1  0  0  0  0
  4  5  2  0  0  0  0
  5  6  1  0  0  0  0
  5 22  1  0  0  0  0
  6  7  1  0  0  0  0
  6 32  1  0  0  0  0
  6 33  1  0  0  0  0
  7 20  1  0  0  0  0
  7 18  2  0  0  0  0
  8 20  1  0  0  0  0
  8 16  1  0  0  0  0
  8  9  2  0  0  0  0
  9 10  1  0  0  0  0
  9 35  1  0  0  0  0
 10 36  1  0  0  0  0
 10 11  2  0  0  0  0
 11 12  1  0  0  0  0
 11 15  1  0  0  0  0
 12 21  1  0  0  0  0
 12 19  2  0  0  0  0
 13 21  1  0  0  0  0
 13 14  1  0  0  0  0
 13 38  1  0  0  0  0
 13 39  1  0  0  0  0
 14 24  1  0  0  0  0
 14 25  1  0  0  0  0
 14 26  1  0  0  0  0
 15 40  1  0  0  0  0
 15 16  2  0  0  0  0
 16 41  1  0  0  0  0
 20 34  1  0  0  0  0
 21 37  1  0  0  0  0
 22 23  2  0  0  0  0
M  END
>  <score>
0.42975467443466187

$$$$
Z4420960359
 OpenBabel08202115463D

 47 50  0  0  0  0  0  0  0  0999 V2000
    0.3145    2.1108    1.5866 O   0  0  0  0  0  0  0  0  0  0  0  0
   -4.2950   -1.3280   -2.0877 O   0  0  0  0  0  0  0  0  0  0  0  0
    0.7839    2.2769    0.5278 C   0  0  0  0  0  0  0  0  0  0  0  0
   -1.3611    2.1937   -0.6528 C   0  0  0  0  0  0  0  0  0  0  0  0
   -1.8256    0.7625   -0.5482 C   0  0  0  0  0  0  0  0  0  0  0  0
   -1.2243   -0.0956    0.3531 C   0  0  0  0  0  0  0  0  0  0  0  0
   -1.6551   -1.4094    0.4527 C   0  0  0  0  0  0  0  0  0  0  0  0
   -2.6824   -1.8627   -0.3532 C   0  0  0  0  0  0  0  0  0  0  0  0
   -3.2855   -1.0021   -1.2572 C   0  0  0  0  0  0  0  0  0  0  0  0
   -4.6333   -2.7341   -2.1178 C   0  0  0  0  0  0  0  0  0  0  0  0
   -5.7194   -2.8899   -3.1411 C   0  0  0  0  0  0  0  0  0  0  0  0
   -2.8559    0.3078   -1.3564 C   0  0  0  0  0  0  0  0  0  0  0  0
    2.3101    2.4742    0.3372 C   0  0  2  0  0  0  0  0  0  0  0  0
    3.3466    1.3525    0.4282 C   0  0  2  0  0  0  0  0  0  0  0  0
    2.9525    0.0556    1.1671 C   0  0  0  0  0  0  0  0  0  0  0  0
    4.3303    0.1194    3.1791 C   0  0  0  0  0  0  0  0  0  0  0  0
    5.7448    0.1464    3.7599 C   0  0  0  0  0  0  0  0  0  0  0  0
    4.6592    1.6569    1.3140 C   0  0  0  0  0  0  0  0  0  0  0  0
    3.3487    2.4479    1.5145 C   0  0  1  0  0  0  0  0  0  0  0  0
    0.0874    2.3169   -0.6191 N   0  0  0  0  0  0  0  0  0  0  0  0
   -5.6082   -2.5139   -4.4148 N   0  0  0  0  0  0  0  0  0  0  0  0
   -6.7945   -2.8499   -4.9048 N   0  0  0  0  0  0  0  0  0  0  0  0
   -7.6052   -3.3992   -4.0102 N   0  0  0  0  0  0  0  0  0  0  0  0
   -6.9296   -3.4322   -2.8695 N   0  0  0  0  0  0  0  0  0  0  0  0
    4.3203    0.2650    1.7077 N   0  0  0  0  0  0  0  0  0  0  0  0
    6.4704   -0.8365    3.2281 F   0  0  0  0  0  0  0  0  0  0  0  0
    5.7526   -0.0182    5.0662 F   0  0  0  0  0  0  0  0  0  0  0  0
    6.3695    1.2943    3.4891 F   0  0  0  0  0  0  0  0  0  0  0  0
    0.5719    2.4331   -1.4630 H   0  0  0  0  0  0  0  0  0  0  0  0
   -1.7181    2.6029   -1.5748 H   0  0  0  0  0  0  0  0  0  0  0  0
   -1.7709    2.7474    0.1660 H   0  0  0  0  0  0  0  0  0  0  0  0
   -0.4486    0.2444    0.9567 H   0  0  0  0  0  0  0  0  0  0  0  0
   -1.2053   -2.0540    1.1338 H   0  0  0  0  0  0  0  0  0  0  0  0
   -3.0029   -2.8494   -0.2814 H   0  0  0  0  0  0  0  0  0  0  0  0
   -4.9826   -3.0507   -1.1572 H   0  0  0  0  0  0  0  0  0  0  0  0
   -3.7780   -3.3140   -2.3957 H   0  0  0  0  0  0  0  0  0  0  0  0
   -7.0480   -2.7057   -5.8404 H   0  0  0  0  0  0  0  0  0  0  0  0
   -3.3056    0.9524   -2.0374 H   0  0  0  0  0  0  0  0  0  0  0  0
    2.5463    3.2088   -0.4040 H   0  0  0  0  0  0  0  0  0  0  0  0
    3.0318    0.2212   -0.2234 H   0  0  0  0  0  0  0  0  0  0  0  0
    2.4610   -0.7431    1.6823 H   0  0  0  0  0  0  0  0  0  0  0  0
    2.9896   -0.1638    0.1205 H   0  0  0  0  0  0  0  0  0  0  0  0
    3.8721   -0.8131    3.4348 H   0  0  0  0  0  0  0  0  0  0  0  0
    3.7681    0.9229    3.6073 H   0  0  0  0  0  0  0  0  0  0  0  0
    5.4354    2.0477    1.9383 H   0  0  0  0  0  0  0  0  0  0  0  0
    4.9705    1.6949    0.2910 H   0  0  0  0  0  0  0  0  0  0  0  0
    3.2990    3.2069    2.2690 H   0  0  0  0  0  0  0  0  0  0  0  0
  3 20  1  0  0  0  0
  3 13  1  0  0  0  0
  3  1  2  0  0  0  0
  4 20  1  0  0  0  0
  4  5  1  0  0  0  0
  4 30  1  0  0  0  0
  4 31  1  0  0  0  0
  5 12  1  0  0  0  0
  5  6  2  0  0  0  0
  6  7  1  0  0  0  0
  6 32  1  0  0  0  0
  7 33  1  0  0  0  0
  7  8  2  0  0  0  0
  8  9  1  0  0  0  0
  8 34  1  0  0  0  0
  9  2  1  0  0  0  0
  9 12  2  0  0  0  0
 10  2  1  0  0  0  0
 10 11  1  0  0  0  0
 10 35  1  0  0  0  0
 10 36  1  0  0  0  0
 11 24  1  0  0  0  0
 11 21  2  0  0  0  0
 12 38  1  0  0  0  0
 13 14  1  0  0  0  0
 13 19  1  0  0  0  0
 13 39  1  6  0  0  0
 14 15  1  0  0  0  0
 14 19  1  0  0  0  0
 14 40  1  6  0  0  0
 15 25  1  0  0  0  0
 15 41  1  0  0  0  0
 15 42  1  0  0  0  0
 16 25  1  0  0  0  0
 16 17  1  0  0  0  0
 16 43  1  0  0  0  0
 16 44  1  0  0  0  0
 17 26  1  0  0  0  0
 17 27  1  0  0  0  0
 17 28  1  0  0  0  0
 18 25  1  0  0  0  0
 18 19  1  0  0  0  0
 18 45  1  0  0  0  0
 18 46  1  0  0  0  0
 19 47  1  1  0  0  0
 20 29  1  0  0  0  0
 21 22  1  0  0  0  0
 22 23  1  0  0  0  0
 22 37  1  0  0  0  0
 23 24  2  0  0  0  0
M  END
>  <score>
0.42976689338684082

$$$$
Z4002431003
 OpenBabel08202115463D

 53 55  0  0  0  0  0  0  0  0999 V2000
   -2.0150    0.6488   -0.7411 C   0  0  0  0  0  0  0  0  0  0  0  0
   -1.9915   -1.8428   -0.9271 C   0  0  0  0  0  0  0  0  0  0  0  0
   -3.1873   -1.7697   -1.8487 C   0  0  0  0  0  0  0  0  0  0  0  0
   -4.0801   -2.9951   -1.7744 C   0  0  0  0  0  0  0  0  0  0  0  0
   -5.8123   -4.0919   -3.2629 C   0  0  0  0  0  0  0  0  0  0  0  0
   -6.9127   -3.6212   -3.9134 C   0  0  0  0  0  0  0  0  0  0  0  0
   -5.9473   -1.9210   -3.0576 C   0  0  0  0  0  0  0  0  0  0  0  0
    0.0945   -0.5720   -0.8257 C   0  0  0  0  0  0  0  0  0  0  0  0
    0.7197    0.6665   -0.2249 C   0  0  1  0  0  0  0  0  0  0  0  0
    0.4161    0.7055    1.2709 C   0  0  0  0  0  0  0  0  0  0  0  0
    1.1617    1.8622    1.9259 C   0  0  0  0  0  0  0  0  0  0  0  0
    2.6769    1.8296    1.6771 C   0  0  0  0  0  0  0  0  0  0  0  0
    3.3152    0.6251    2.4007 C   0  0  0  0  0  0  0  0  0  0  0  0
    4.8316    0.5725    2.2532 C   0  0  0  0  0  0  0  0  0  0  0  0
    5.4657    1.8421    2.8150 C   0  0  0  0  0  0  0  0  0  0  0  0
    4.8736    3.0829    2.1411 C   0  0  0  0  0  0  0  0  0  0  0  0
    3.3407    3.1296    2.2140 C   0  0  0  0  0  0  0  0  0  0  0  0
    2.2202    0.6363   -0.4689 C   0  0  0  0  0  0  0  0  0  0  0  0
   -1.2471   -0.5840   -0.8726 N   0  0  0  0  0  0  0  0  0  0  0  0
   -5.2018   -2.9924   -2.7153 N   0  0  0  0  0  0  0  0  0  0  0  0
   -6.9959   -2.2558   -3.7866 N   0  0  0  0  0  0  0  0  0  0  0  0
    2.8800    1.7727    0.1974 N   0  0  0  0  0  0  0  0  0  0  0  0
    0.7875   -1.5002   -1.2401 O   0  0  0  0  0  0  0  0  0  0  0  0
   -3.0565    0.4052   -0.7703 H   0  0  0  0  0  0  0  0  0  0  0  0
   -1.7765    1.3101   -1.5478 H   0  0  0  0  0  0  0  0  0  0  0  0
   -1.7811    1.1220    0.1896 H   0  0  0  0  0  0  0  0  0  0  0  0
   -2.3323   -2.0825    0.0584 H   0  0  0  0  0  0  0  0  0  0  0  0
   -1.3364   -2.6136   -1.2759 H   0  0  0  0  0  0  0  0  0  0  0  0
   -2.8351   -1.6670   -2.8539 H   0  0  0  0  0  0  0  0  0  0  0  0
   -3.7676   -0.9106   -1.5841 H   0  0  0  0  0  0  0  0  0  0  0  0
   -4.4771   -3.0585   -0.7828 H   0  0  0  0  0  0  0  0  0  0  0  0
   -3.4794   -3.8577   -1.9745 H   0  0  0  0  0  0  0  0  0  0  0  0
   -5.4994   -5.0814   -3.1953 H   0  0  0  0  0  0  0  0  0  0  0  0
   -7.5935   -4.2118   -4.4323 H   0  0  0  0  0  0  0  0  0  0  0  0
   -5.7220   -0.9446   -2.7794 H   0  0  0  0  0  0  0  0  0  0  0  0
    0.3059    1.5369   -0.6898 H   0  0  0  0  0  0  0  0  0  0  0  0
    0.7269   -0.2150    1.7192 H   0  0  0  0  0  0  0  0  0  0  0  0
   -0.6361    0.8357    1.4152 H   0  0  0  0  0  0  0  0  0  0  0  0
    0.9904    1.8219    2.9813 H   0  0  0  0  0  0  0  0  0  0  0  0
    0.7737    2.7800    1.5359 H   0  0  0  0  0  0  0  0  0  0  0  0
    3.0766    0.6883    3.4419 H   0  0  0  0  0  0  0  0  0  0  0  0
    2.9023   -0.2742    1.9936 H   0  0  0  0  0  0  0  0  0  0  0  0
    5.2083   -0.2752    2.7866 H   0  0  0  0  0  0  0  0  0  0  0  0
    5.0819    0.4824    1.2168 H   0  0  0  0  0  0  0  0  0  0  0  0
    5.2805    1.8915    3.8677 H   0  0  0  0  0  0  0  0  0  0  0  0
    6.5207    1.8159    2.6387 H   0  0  0  0  0  0  0  0  0  0  0  0
    5.2648    3.9533    2.6251 H   0  0  0  0  0  0  0  0  0  0  0  0
    5.1663    3.0846    1.1119 H   0  0  0  0  0  0  0  0  0  0  0  0
    2.9949    3.9571    1.6305 H   0  0  0  0  0  0  0  0  0  0  0  0
    3.0502    3.2662    3.2348 H   0  0  0  0  0  0  0  0  0  0  0  0
    2.5286    2.6008   -0.1913 H   0  0  0  0  0  0  0  0  0  0  0  0
    2.4057    0.6907   -1.5213 H   0  0  0  0  0  0  0  0  0  0  0  0
    2.6203   -0.2777   -0.0825 H   0  0  0  0  0  0  0  0  0  0  0  0
  1 19  1  0  0  0  0
  1 24  1  0  0  0  0
  1 25  1  0  0  0  0
  1 26  1  0  0  0  0
  2 19  1  0  0  0  0
  2  3  1  0  0  0  0
  2 27  1  0  0  0  0
  2 28  1  0  0  0  0
  3  4  1  0  0  0  0
  3 29  1  0  0  0  0
  3 30  1  0  0  0  0
  4 20  1  0  0  0  0
  4 31  1  0  0  0  0
  4 32  1  0  0  0  0
  5 20  1  0  0  0  0
  5 33  1  0  0  0  0
  5  6  2  0  0  0  0
  6 21  1  0  0  0  0
  6 34  1  0  0  0  0
  7 20  1  0  0  0  0
  7 35  1  0  0  0  0
  7 21  2  0  0  0  0
  8 19  1  0  0  0  0
  8  9  1  0  0  0  0
  8 23  2  0  0  0  0
  9 10  1  0  0  0  0
  9 18  1  0  0  0  0
  9 36  1  6  0  0  0
 10 11  1  0  0  0  0
 10 37  1  0  0  0  0
 10 38  1  0  0  0  0
 11 12  1  0  0  0  0
 11 39  1  0  0  0  0
 11 40  1  0  0  0  0
 12 13  1  0  0  0  0
 12 17  1  0  0  0  0
 12 22  1  0  0  0  0
 13 14  1  0  0  0  0
 13 41  1  0  0  0  0
 13 42  1  0  0  0  0
 14 15  1  0  0  0  0
 14 43  1  0  0  0  0
 14 44  1  0  0  0  0
 15 16  1  0  0  0  0
 15 45  1  0  0  0  0
 15 46  1  0  0  0  0
 16 17  1  0  0  0  0
 16 47  1  0  0  0  0
 16 48  1  0  0  0  0
 17 49  1  0  0  0  0
 17 50  1  0  0  0  0
 18 22  1  0  0  0  0
 18 52  1  0  0  0  0
 18 53  1  0  0  0  0
 22 51  1  0  0  0  0
M  END
>  <score>
0.42990654706954956

$$$$
Z4458609428
 OpenBabel08202115463D

 38 40  0  0  0  0  0  0  0  0999 V2000
   -5.8854   -3.8104   -2.0967 C   0  0  0  0  0  0  0  0  0  0  0  0
   -4.5421   -3.6678   -2.7935 C   0  0  0  0  0  0  0  0  0  0  0  0
   -3.1509   -1.7074   -1.9564 C   0  0  0  0  0  0  0  0  0  0  0  0
   -3.0195   -0.4010   -2.3631 C   0  0  0  0  0  0  0  0  0  0  0  0
   -1.2076    0.2227   -0.8830 C   0  0  0  0  0  0  0  0  0  0  0  0
   -0.3632    1.3693   -0.3620 C   0  0  0  0  0  0  0  0  0  0  0  0
    1.9243    2.0446    1.0425 C   0  0  0  0  0  0  0  0  0  0  0  0
    3.5136    3.2241    1.9807 C   0  0  0  0  0  0  0  0  0  0  0  0
    4.6888    3.4493    2.7309 C   0  0  0  0  0  0  0  0  0  0  0  0
    5.3417    2.3901    3.2544 C   0  0  0  0  0  0  0  0  0  0  0  0
    4.8808    1.0635    3.0336 C   0  0  0  0  0  0  0  0  0  0  0  0
    5.6556   -0.0958    3.5862 C   0  0  0  0  0  0  0  0  0  0  0  0
    3.7534    0.8394    2.3317 C   0  0  0  0  0  0  0  0  0  0  0  0
   -3.8827   -0.2677   -3.4592 C   0  0  0  0  0  0  0  0  0  0  0  0
   -4.0493   -2.2881   -2.7868 N   0  0  0  0  0  0  0  0  0  0  0  0
   -2.1707    0.5574   -1.7562 N   0  0  0  0  0  0  0  0  0  0  0  0
    1.7257    3.3102    0.7731 N   0  0  0  0  0  0  0  0  0  0  0  0
    2.7091    4.0713    1.3637 N   0  0  0  0  0  0  0  0  0  0  0  0
    3.0610    1.9212    1.8253 N   0  0  0  0  0  0  0  0  0  0  0  0
   -4.5169   -1.4156   -3.7159 N   0  0  0  0  0  0  0  0  0  0  0  0
   -1.0078   -0.9349   -0.5173 O   0  0  0  0  0  0  0  0  0  0  0  0
    1.0092    0.6395    0.5727 S   0  0  0  0  0  0  0  0  0  0  0  0
    6.9523   -0.0120    3.2839 F   0  0  0  0  0  0  0  0  0  0  0  0
    5.2797   -1.2522    3.0908 F   0  0  0  0  0  0  0  0  0  0  0  0
    5.6209   -0.1665    4.8945 F   0  0  0  0  0  0  0  0  0  0  0  0
   -6.1360   -4.8473   -2.0128 H   0  0  0  0  0  0  0  0  0  0  0  0
   -6.6379   -3.3069   -2.6668 H   0  0  0  0  0  0  0  0  0  0  0  0
   -5.8279   -3.3775   -1.1199 H   0  0  0  0  0  0  0  0  0  0  0  0
   -4.6465   -3.9897   -3.8086 H   0  0  0  0  0  0  0  0  0  0  0  0
   -3.8288   -4.2891   -2.2934 H   0  0  0  0  0  0  0  0  0  0  0  0
   -2.6555   -2.1625   -1.1632 H   0  0  0  0  0  0  0  0  0  0  0  0
   -2.2917    1.5031   -1.9830 H   0  0  0  0  0  0  0  0  0  0  0  0
   -0.9497    1.9962    0.2767 H   0  0  0  0  0  0  0  0  0  0  0  0
    0.0156    1.9468   -1.1793 H   0  0  0  0  0  0  0  0  0  0  0  0
    5.0454    4.4152    2.8774 H   0  0  0  0  0  0  0  0  0  0  0  0
    6.1948    2.5470    3.8281 H   0  0  0  0  0  0  0  0  0  0  0  0
    3.4110   -0.1299    2.1742 H   0  0  0  0  0  0  0  0  0  0  0  0
   -4.0126    0.6099   -4.0019 H   0  0  0  0  0  0  0  0  0  0  0  0
  1  2  1  0  0  0  0
  1 26  1  0  0  0  0
  1 27  1  0  0  0  0
  1 28  1  0  0  0  0
  2 15  1  0  0  0  0
  2 29  1  0  0  0  0
  2 30  1  0  0  0  0
  3 15  1  0  0  0  0
  3 31  1  0  0  0  0
  3  4  2  0  0  0  0
  4 16  1  0  0  0  0
  4 14  1  0  0  0  0
  5 16  1  0  0  0  0
  5  6  1  0  0  0  0
  5 21  2  0  0  0  0
  6 22  1  0  0  0  0
  6 33  1  0  0  0  0
  6 34  1  0  0  0  0
  7 22  1  0  0  0  0
  7 19  1  0  0  0  0
  7 17  2  0  0  0  0
  8  9  1  0  0  0  0
  8 19  1  0  0  0  0
  8 18  2  0  0  0  0
  9 35  1  0  0  0  0
  9 10  2  0  0  0  0
 10 11  1  0  0  0  0
 10 36  1  0  0  0  0
 11 12  1  0  0  0  0
 11 13  2  0  0  0  0
 12 23  1  0  0  0  0
 12 24  1  0  0  0  0
 12 25  1  0  0  0  0
 13 19  1  0  0  0  0
 13 37  1  0  0  0  0
 14 38  1  0  0  0  0
 14 20  2  0  0  0  0
 15 20  1  0  0  0  0
 16 32  1  0  0  0  0
 17 18  1  0  0  0  0
M  END
>  <score>
0.43008679151535034

$$$$
Z4451321441
 OpenBabel08202115463D

 46 48  0  0  0  0  0  0  0  0999 V2000
   -6.9491   -3.6171   -3.6045 C   0  0  0  0  0  0  0  0  0  0  0  0
   -5.9936   -2.6365   -3.0167 C   0  0  0  0  0  0  0  0  0  0  0  0
   -4.2246   -1.8271   -2.0643 C   0  0  0  0  0  0  0  0  0  0  0  0
   -2.8716   -1.7618   -1.4078 C   0  0  0  0  0  0  0  0  0  0  0  0
   -2.5405   -0.3946   -0.8750 C   0  0  0  0  0  0  0  0  0  0  0  0
   -1.0296    1.0754    0.2594 C   0  0  0  0  0  0  0  0  0  0  0  0
    0.3122    1.2217    0.9612 C   0  0  0  0  0  0  0  0  0  0  0  0
    1.4417    0.7970    0.0496 C   0  0  0  0  0  0  0  0  0  0  0  0
    2.9515    2.0578    1.4003 C   0  0  0  0  0  0  0  0  0  0  0  0
    4.2188    2.0379    2.2088 C   0  0  0  0  0  0  0  0  0  0  0  0
    4.7940    3.2245    2.6225 C   0  0  0  0  0  0  0  0  0  0  0  0
    5.9597    3.2054    3.3725 C   0  0  0  0  0  0  0  0  0  0  0  0
    6.5495    1.9996    3.7020 C   0  0  0  0  0  0  0  0  0  0  0  0
    5.9727    0.8094    3.2871 C   0  0  0  0  0  0  0  0  0  0  0  0
    4.8105    0.8287    2.5394 C   0  0  0  0  0  0  0  0  0  0  0  0
    1.1917   -0.5973   -0.4781 C   0  0  0  0  0  0  0  0  0  0  0  0
   -0.1782   -0.6928   -1.1287 C   0  0  0  0  0  0  0  0  0  0  0  0
   -6.1666   -1.3442   -2.9117 N   0  0  0  0  0  0  0  0  0  0  0  0
   -5.0322   -0.8229   -2.3037 N   0  0  0  0  0  0  0  0  0  0  0  0
   -1.2297   -0.2961   -0.1968 N   0  0  0  0  0  0  0  0  0  0  0  0
   -4.7916   -2.9893   -2.5053 N   0  0  0  0  0  0  0  0  0  0  0  0
    2.6689    0.8114    0.7811 O   0  0  0  0  0  0  0  0  0  0  0  0
    8.1428    1.9736    4.7184 Br  0  0  0  0  0  0  0  0  0  0  0  0
   -7.8738   -3.1262   -3.8257 H   0  0  0  0  0  0  0  0  0  0  0  0
   -7.1238   -4.4078   -2.9050 H   0  0  0  0  0  0  0  0  0  0  0  0
   -6.5360   -4.0215   -4.5049 H   0  0  0  0  0  0  0  0  0  0  0  0
   -2.1297   -2.0353   -2.1286 H   0  0  0  0  0  0  0  0  0  0  0  0
   -2.8534   -2.4575   -0.5950 H   0  0  0  0  0  0  0  0  0  0  0  0
   -3.2999   -0.1173   -0.1742 H   0  0  0  0  0  0  0  0  0  0  0  0
   -2.5435    0.2923   -1.6954 H   0  0  0  0  0  0  0  0  0  0  0  0
   -1.8121    1.3357    0.9412 H   0  0  0  0  0  0  0  0  0  0  0  0
   -1.0575    1.7330   -0.5842 H   0  0  0  0  0  0  0  0  0  0  0  0
    0.4525    2.2450    1.2407 H   0  0  0  0  0  0  0  0  0  0  0  0
    0.3188    0.6079    1.8376 H   0  0  0  0  0  0  0  0  0  0  0  0
    1.5078    1.4791   -0.7722 H   0  0  0  0  0  0  0  0  0  0  0  0
    2.1377    2.3087    2.0482 H   0  0  0  0  0  0  0  0  0  0  0  0
    3.0447    2.8034    0.6387 H   0  0  0  0  0  0  0  0  0  0  0  0
    4.3523    4.1319    2.3711 H   0  0  0  0  0  0  0  0  0  0  0  0
    6.3903    4.0982    3.6872 H   0  0  0  0  0  0  0  0  0  0  0  0
    6.4144   -0.0979    3.5385 H   0  0  0  0  0  0  0  0  0  0  0  0
    4.3799   -0.0641    2.2247 H   0  0  0  0  0  0  0  0  0  0  0  0
    1.9413   -0.8371   -1.2031 H   0  0  0  0  0  0  0  0  0  0  0  0
    1.2436   -1.2933    0.3329 H   0  0  0  0  0  0  0  0  0  0  0  0
   -0.3485   -1.7027   -1.4387 H   0  0  0  0  0  0  0  0  0  0  0  0
   -0.2058   -0.0478   -1.9820 H   0  0  0  0  0  0  0  0  0  0  0  0
   -4.4079   -3.8900   -2.4606 H   0  0  0  0  0  0  0  0  0  0  0  0
  1  2  1  0  0  0  0
  1 24  1  0  0  0  0
  1 25  1  0  0  0  0
  1 26  1  0  0  0  0
  2 21  1  0  0  0  0
  2 18  2  0  0  0  0
  3  4  1  0  0  0  0
  3 21  1  0  0  0  0
  3 19  2  0  0  0  0
  4  5  1  0  0  0  0
  4 27  1  0  0  0  0
  4 28  1  0  0  0  0
  5 20  1  0  0  0  0
  5 29  1  0  0  0  0
  5 30  1  0  0  0  0
  6 20  1  0  0  0  0
  6  7  1  0  0  0  0
  6 31  1  0  0  0  0
  6 32  1  0  0  0  0
  7  8  1  0  0  0  0
  7 33  1  0  0  0  0
  7 34  1  0  0  0  0
  8 22  1  0  0  0  0
  8 16  1  0  0  0  0
  8 35  1  0  0  0  0
  9 22  1  0  0  0  0
  9 10  1  0  0  0  0
  9 36  1  0  0  0  0
  9 37  1  0  0  0  0
 10 15  1  0  0  0  0
 10 11  2  0  0  0  0
 11 12  1  0  0  0  0
 11 38  1  0  0  0  0
 12 39  1  0  0  0  0
 12 13  2  0  0  0  0
 13 23  1  0  0  0  0
 13 14  1  0  0  0  0
 14 40  1  0  0  0  0
 14 15  2  0  0  0  0
 15 41  1  0  0  0  0
 16 17  1  0  0  0  0
 16 42  1  0  0  0  0
 16 43  1  0  0  0  0
 17 20  1  0  0  0  0
 17 44  1  0  0  0  0
 17 45  1  0  0  0  0
 18 19  1  0  0  0  0
 21 46  1  0  0  0  0
M  END
>  <score>
0.43011415004730225

$$$$
PV-003334645966
 OpenBabel08202115463D

 46 48  0  0  0  0  0  0  0  0999 V2000
   -8.0127   -2.9301   -2.6874 N   0  0  0  0  0  0  0  0  0  0  0  0
   -4.6002   -2.1051   -3.3242 N   0  0  0  0  0  0  0  0  0  0  0  0
   -2.9949   -1.1912   -1.9874 N   0  0  0  0  0  0  0  0  0  0  0  0
    1.1590    0.0132    0.1220 N   0  0  0  0  0  0  0  0  0  0  0  0
   -6.7638   -3.3300   -2.9747 C   0  0  0  0  0  0  0  0  0  0  0  0
   -5.9719   -2.3213   -3.7837 C   0  0  0  0  0  0  0  0  0  0  0  0
   -4.2784   -1.1344   -2.4185 C   0  0  0  0  0  0  0  0  0  0  0  0
   -2.2904   -0.3135   -1.1244 C   0  0  0  0  0  0  0  0  0  0  0  0
   -2.9299    0.6695   -0.3930 C   0  0  0  0  0  0  0  0  0  0  0  0
   -2.2137    1.4362    0.5129 C   0  0  0  0  0  0  0  0  0  0  0  0
   -0.8588    1.2212    0.6808 C   0  0  0  0  0  0  0  0  0  0  0  0
   -0.2172    0.2353   -0.0527 C   0  0  0  0  0  0  0  0  0  0  0  0
    2.0609    0.8064    0.8147 C   0  0  0  0  0  0  0  0  0  0  0  0
    3.4694    0.3171    1.0032 C   0  0  0  0  0  0  0  0  0  0  0  0
    4.3481    1.3050    1.7593 C   0  0  0  0  0  0  0  0  0  0  0  0
    5.8004    0.8853    2.0313 C   0  0  0  0  0  0  0  0  0  0  0  0
    6.3404    0.1651    3.2307 C   0  0  0  0  0  0  0  0  0  0  0  0
    6.7004    1.5980    2.9912 C   0  0  0  0  0  0  0  0  0  0  0  0
    3.6999    2.1497    2.8154 C   0  0  0  0  0  0  0  0  0  0  0  0
    4.1242    2.7652    1.5192 C   0  0  0  0  0  0  0  0  0  0  0  0
   -0.9315   -0.5290   -0.9559 C   0  0  0  0  0  0  0  0  0  0  0  0
   -6.2804   -4.3967   -2.6330 O   0  0  0  0  0  0  0  0  0  0  0  0
   -5.0772   -0.2957   -2.0364 O   0  0  0  0  0  0  0  0  0  0  0  0
    1.6790    1.8803    1.2500 O   0  0  0  0  0  0  0  0  0  0  0  0
   -8.3352   -2.0620   -3.0082 H   0  0  0  0  0  0  0  0  0  0  0  0
   -8.6018   -3.5061   -2.1569 H   0  0  0  0  0  0  0  0  0  0  0  0
   -6.4874   -1.3846   -3.7436 H   0  0  0  0  0  0  0  0  0  0  0  0
   -5.9330   -2.6644   -4.7965 H   0  0  0  0  0  0  0  0  0  0  0  0
   -3.8871   -2.6766   -3.6783 H   0  0  0  0  0  0  0  0  0  0  0  0
   -2.4761   -1.9524   -2.3219 H   0  0  0  0  0  0  0  0  0  0  0  0
   -3.9487    0.8339   -0.5223 H   0  0  0  0  0  0  0  0  0  0  0  0
   -2.6958    2.1732    1.0661 H   0  0  0  0  0  0  0  0  0  0  0  0
   -0.3206    1.7991    1.3576 H   0  0  0  0  0  0  0  0  0  0  0  0
    1.5236   -0.7959   -0.2938 H   0  0  0  0  0  0  0  0  0  0  0  0
    3.9018    0.1447    0.0398 H   0  0  0  0  0  0  0  0  0  0  0  0
    3.4403   -0.6015    1.5512 H   0  0  0  0  0  0  0  0  0  0  0  0
    6.3067    0.6076    1.1305 H   0  0  0  0  0  0  0  0  0  0  0  0
    7.0786   -0.5997    3.1080 H   0  0  0  0  0  0  0  0  0  0  0  0
    5.6874   -0.0948    4.0375 H   0  0  0  0  0  0  0  0  0  0  0  0
    6.3052    2.3619    3.6277 H   0  0  0  0  0  0  0  0  0  0  0  0
    7.6963    1.8570    2.6982 H   0  0  0  0  0  0  0  0  0  0  0  0
    4.2299    2.3802    3.7159 H   0  0  0  0  0  0  0  0  0  0  0  0
    2.6598    2.0274    3.0345 H   0  0  0  0  0  0  0  0  0  0  0  0
    3.3868    3.0837    0.8122 H   0  0  0  0  0  0  0  0  0  0  0  0
    4.9570    3.4365    1.4936 H   0  0  0  0  0  0  0  0  0  0  0  0
   -0.4494   -1.2660   -1.5091 H   0  0  0  0  0  0  0  0  0  0  0  0
  1 25  1  0  0  0  0
  1 26  1  0  0  0  0
  2 29  1  0  0  0  0
  3 30  1  0  0  0  0
  4 34  1  0  0  0  0
  5  1  1  0  0  0  0
  5  6  1  0  0  0  0
  5 22  2  0  0  0  0
  6  2  1  0  0  0  0
  6 27  1  0  0  0  0
  6 28  1  0  0  0  0
  7  2  1  0  0  0  0
  7  3  1  0  0  0  0
  7 23  2  0  0  0  0
  8  3  1  0  0  0  0
  8 21  1  0  0  0  0
  8  9  2  0  0  0  0
  9 10  1  0  0  0  0
  9 31  1  0  0  0  0
 10 32  1  0  0  0  0
 10 11  2  0  0  0  0
 11 12  1  0  0  0  0
 11 33  1  0  0  0  0
 12  4  1  0  0  0  0
 12 21  2  0  0  0  0
 13  4  1  0  0  0  0
 13 14  1  0  0  0  0
 13 24  2  0  0  0  0
 14 15  1  0  0  0  0
 14 35  1  0  0  0  0
 14 36  1  0  0  0  0
 15 16  1  0  0  0  0
 15 19  1  0  0  0  0
 15 20  1  0  0  0  0
 16 17  1  0  0  0  0
 16 18  1  0  0  0  0
 16 37  1  0  0  0  0
 17 18  1  0  0  0  0
 17 38  1  0  0  0  0
 17 39  1  0  0  0  0
 18 40  1  0  0  0  0
 18 41  1  0  0  0  0
 19 20  1  0  0  0  0
 19 42  1  0  0  0  0
 19 43  1  0  0  0  0
 20 44  1  0  0  0  0
 20 45  1  0  0  0  0
 21 46  1  0  0  0  0
M  END
>  <score>
0.43021804094314575

$$$$
Z3680944848
 OpenBabel08202115463D

 42 43  0  0  0  0  0  0  0  0999 V2000
   -1.0509    1.1846   -0.3217 O   0  0  0  0  0  0  0  0  0  0  0  0
    5.8100    3.4753    2.0496 O   0  0  0  0  0  0  0  0  0  0  0  0
    2.9068    0.5725    2.3926 O   0  0  0  0  0  0  0  0  0  0  0  0
   -0.4353    0.1815    0.0301 C   0  0  0  0  0  0  0  0  0  0  0  0
    1.6449    1.4222    0.5333 C   0  0  0  0  0  0  0  0  0  0  0  0
    3.0339    1.1478    1.0985 C   0  0  1  0  0  0  0  0  0  0  0  0
    3.8147    2.4571    1.1685 C   0  0  0  0  0  0  0  0  0  0  0  0
    5.1683    2.2176    1.8339 C   0  0  2  0  0  0  0  0  0  0  0  0
    5.0082    1.5104    3.1641 C   0  0  0  0  0  0  0  0  0  0  0  0
    4.1688    0.2425    2.9935 C   0  0  0  0  0  0  0  0  0  0  0  0
   -2.3649   -1.2392   -0.3405 C   0  0  0  0  0  0  0  0  0  0  0  0
   -2.4973   -1.8141   -1.7834 C   0  0  0  0  0  0  0  0  0  0  0  0
   -3.9378   -1.8638   -2.2352 C   0  0  0  0  0  0  0  0  0  0  0  0
   -4.6546   -3.0463   -2.1389 C   0  0  0  0  0  0  0  0  0  0  0  0
   -5.9710   -3.0927   -2.5573 C   0  0  0  0  0  0  0  0  0  0  0  0
   -6.5761   -1.9551   -3.0684 C   0  0  0  0  0  0  0  0  0  0  0  0
   -5.8615   -0.7759   -3.1646 C   0  0  0  0  0  0  0  0  0  0  0  0
   -4.5412   -0.7296   -2.7448 C   0  0  0  0  0  0  0  0  0  0  0  0
    0.8397    0.2152    0.4204 N   0  0  0  0  0  0  0  0  0  0  0  0
   -0.9788   -1.0450    0.0579 N   0  0  0  0  0  0  0  0  0  0  0  0
   -1.8768   -2.9925   -1.8564 F   0  0  0  0  0  0  0  0  0  0  0  0
   -1.8243   -0.9623   -2.6021 F   0  0  0  0  0  0  0  0  0  0  0  0
   -7.8619   -2.0426   -3.4597 F   0  0  0  0  0  0  0  0  0  0  0  0
   -3.8464    0.4208   -2.8336 F   0  0  0  0  0  0  0  0  0  0  0  0
    1.2665   -0.6371    0.6482 H   0  0  0  0  0  0  0  0  0  0  0  0
    1.1417    2.1107    1.1795 H   0  0  0  0  0  0  0  0  0  0  0  0
    1.7500    1.8564   -0.4390 H   0  0  0  0  0  0  0  0  0  0  0  0
    3.5511    0.4636    0.4587 H   0  0  0  0  0  0  0  0  0  0  0  0
    3.2596    3.1714    1.7399 H   0  0  0  0  0  0  0  0  0  0  0  0
    3.9674    2.8328    0.1783 H   0  0  0  0  0  0  0  0  0  0  0  0
    5.7723    1.6144    1.1887 H   0  0  0  0  0  0  0  0  0  0  0  0
    5.1480    4.1688    2.0977 H   0  0  0  0  0  0  0  0  0  0  0  0
    4.5213    2.1656    3.8558 H   0  0  0  0  0  0  0  0  0  0  0  0
    5.9739    1.2461    3.5417 H   0  0  0  0  0  0  0  0  0  0  0  0
    4.6917   -0.4478    2.3651 H   0  0  0  0  0  0  0  0  0  0  0  0
    4.0003   -0.2035    3.9514 H   0  0  0  0  0  0  0  0  0  0  0  0
   -0.4411   -1.8116    0.3472 H   0  0  0  0  0  0  0  0  0  0  0  0
   -2.8688   -0.2962   -0.2995 H   0  0  0  0  0  0  0  0  0  0  0  0
   -2.8260   -1.9206    0.3436 H   0  0  0  0  0  0  0  0  0  0  0  0
   -4.2018   -3.8987   -1.7517 H   0  0  0  0  0  0  0  0  0  0  0  0
   -6.5075   -3.9809   -2.4887 H   0  0  0  0  0  0  0  0  0  0  0  0
   -6.3144    0.0765   -3.5518 H   0  0  0  0  0  0  0  0  0  0  0  0
  2 32  1  0  0  0  0
  4 19  1  0  0  0  0
  4 20  1  0  0  0  0
  4  1  2  0  0  0  0
  5 19  1  0  0  0  0
  5  6  1  0  0  0  0
  5 26  1  0  0  0  0
  5 27  1  0  0  0  0
  6  7  1  0  0  0  0
  6  3  1  0  0  0  0
  6 28  1  6  0  0  0
  7  8  1  0  0  0  0
  7 29  1  0  0  0  0
  7 30  1  0  0  0  0
  8  2  1  0  0  0  0
  8  9  1  0  0  0  0
  8 31  1  6  0  0  0
  9 10  1  0  0  0  0
  9 33  1  0  0  0  0
  9 34  1  0  0  0  0
 10  3  1  0  0  0  0
 10 35  1  0  0  0  0
 10 36  1  0  0  0  0
 11 20  1  0  0  0  0
 11 12  1  0  0  0  0
 11 38  1  0  0  0  0
 11 39  1  0  0  0  0
 12 21  1  0  0  0  0
 12 22  1  0  0  0  0
 12 13  1  0  0  0  0
 13 18  1  0  0  0  0
 13 14  2  0  0  0  0
 14 15  1  0  0  0  0
 14 40  1  0  0  0  0
 15 41  1  0  0  0  0
 15 16  2  0  0  0  0
 16 23  1  0  0  0  0
 16 17  1  0  0  0  0
 17 42  1  0  0  0  0
 17 18  2  0  0  0  0
 18 24  1  0  0  0  0
 19 25  1  0  0  0  0
 20 37  1  0  0  0  0
M  END
>  <score>
0.4304320216178894

$$$$
PV-003358027685
 OpenBabel08202115463D

 49 51  0  0  0  0  0  0  0  0999 V2000
    3.9793    2.9423    2.1707 C   0  0  0  0  0  0  0  0  0  0  0  0
    1.1816    1.4655    0.6313 C   0  0  0  0  0  0  0  0  0  0  0  0
   -0.8165    0.6076   -0.5439 C   0  0  0  0  0  0  0  0  0  0  0  0
   -2.0543    0.9917   -1.3071 C   0  0  0  0  0  0  0  0  0  0  0  0
   -2.9057   -0.1942   -1.6875 C   0  0  0  0  0  0  0  0  0  0  0  0
   -4.1950    0.1349   -2.4223 C   0  0  0  0  0  0  0  0  0  0  0  0
   -4.9482   -1.0982   -2.8816 C   0  0  0  0  0  0  0  0  0  0  0  0
   -4.6225   -1.7499   -4.0561 C   0  0  0  0  0  0  0  0  0  0  0  0
   -5.3868   -2.8223   -4.4888 C   0  0  0  0  0  0  0  0  0  0  0  0
   -6.4777   -3.2366   -3.7483 C   0  0  0  0  0  0  0  0  0  0  0  0
   -6.8046   -2.5831   -2.5703 C   0  0  0  0  0  0  0  0  0  0  0  0
   -6.0424   -1.5138   -2.1390 C   0  0  0  0  0  0  0  0  0  0  0  0
    1.7984    0.2775    1.0468 C   0  0  0  0  0  0  0  0  0  0  0  0
    2.9276    0.6740    1.7230 C   0  0  0  0  0  0  0  0  0  0  0  0
    4.0186   -0.1041    2.4142 C   0  0  0  0  0  0  0  0  0  0  0  0
    4.0987    0.3034    3.8970 C   0  0  0  0  0  0  0  0  0  0  0  0
    5.6210    0.1334    4.2209 C   0  0  0  0  0  0  0  0  0  0  0  0
    6.2838    0.6542    2.9397 C   0  0  0  0  0  0  0  0  0  0  0  0
    5.4079    0.2274    1.7661 C   0  0  0  0  0  0  0  0  0  0  0  0
    2.9484    2.0277    1.6915 N   0  0  0  0  0  0  0  0  0  0  0  0
    1.8843    2.5344    1.0176 N   0  0  0  0  0  0  0  0  0  0  0  0
   -0.0148    1.5963   -0.0966 N   0  0  0  0  0  0  0  0  0  0  0  0
   -0.5454   -0.5741   -0.3349 O   0  0  0  0  0  0  0  0  0  0  0  0
   -7.1498   -4.2898   -4.2735 O   0  0  0  0  0  0  0  0  0  0  0  0
   -7.8647   -2.9902   -1.8461 F   0  0  0  0  0  0  0  0  0  0  0  0
    4.4427    2.5325    3.0437 H   0  0  0  0  0  0  0  0  0  0  0  0
    3.5349    3.8852    2.4124 H   0  0  0  0  0  0  0  0  0  0  0  0
    4.7164    3.0801    1.4074 H   0  0  0  0  0  0  0  0  0  0  0  0
   -0.2989    2.5113   -0.3028 H   0  0  0  0  0  0  0  0  0  0  0  0
   -1.7591    1.4999   -2.2012 H   0  0  0  0  0  0  0  0  0  0  0  0
   -2.6391    1.6496   -0.6987 H   0  0  0  0  0  0  0  0  0  0  0  0
   -3.1622   -0.7172   -0.7900 H   0  0  0  0  0  0  0  0  0  0  0  0
   -2.3208   -0.8313   -2.3175 H   0  0  0  0  0  0  0  0  0  0  0  0
   -3.9561    0.7274   -3.2807 H   0  0  0  0  0  0  0  0  0  0  0  0
   -4.8274    0.6956   -1.7661 H   0  0  0  0  0  0  0  0  0  0  0  0
   -3.8039   -1.4356   -4.6154 H   0  0  0  0  0  0  0  0  0  0  0  0
   -5.1393   -3.3152   -5.3705 H   0  0  0  0  0  0  0  0  0  0  0  0
   -7.9163   -3.9722   -4.7564 H   0  0  0  0  0  0  0  0  0  0  0  0
   -6.2900   -1.0210   -1.2573 H   0  0  0  0  0  0  0  0  0  0  0  0
    1.4717   -0.6955    0.8795 H   0  0  0  0  0  0  0  0  0  0  0  0
    3.8168   -1.1517    2.3325 H   0  0  0  0  0  0  0  0  0  0  0  0
    3.5006   -0.3411    4.5067 H   0  0  0  0  0  0  0  0  0  0  0  0
    3.7861    1.3173    4.0354 H   0  0  0  0  0  0  0  0  0  0  0  0
    5.9047    0.7191    5.0702 H   0  0  0  0  0  0  0  0  0  0  0  0
    5.8681   -0.8928    4.3961 H   0  0  0  0  0  0  0  0  0  0  0  0
    6.3555    1.7213    2.9731 H   0  0  0  0  0  0  0  0  0  0  0  0
    7.2622    0.2335    2.8375 H   0  0  0  0  0  0  0  0  0  0  0  0
    5.8161   -0.6363    1.2840 H   0  0  0  0  0  0  0  0  0  0  0  0
    5.3139    1.0220    1.0558 H   0  0  0  0  0  0  0  0  0  0  0  0
  1 20  1  0  0  0  0
  1 26  1  0  0  0  0
  1 27  1  0  0  0  0
  1 28  1  0  0  0  0
  2 22  1  0  0  0  0
  2 13  1  0  0  0  0
  2 21  2  0  0  0  0
  3 22  1  0  0  0  0
  3  4  1  0  0  0  0
  3 23  2  0  0  0  0
  4  5  1  0  0  0  0
  4 30  1  0  0  0  0
  4 31  1  0  0  0  0
  5  6  1  0  0  0  0
  5 32  1  0  0  0  0
  5 33  1  0  0  0  0
  6  7  1  0  0  0  0
  6 34  1  0  0  0  0
  6 35  1  0  0  0  0
  7 12  1  0  0  0  0
  7  8  2  0  0  0  0
  8  9  1  0  0  0  0
  8 36  1  0  0  0  0
  9 37  1  0  0  0  0
  9 10  2  0  0  0  0
 10 24  1  0  0  0  0
 10 11  1  0  0  0  0
 11 25  1  0  0  0  0
 11 12  2  0  0  0  0
 12 39  1  0  0  0  0
 13 40  1  0  0  0  0
 13 14  2  0  0  0  0
 14 20  1  0  0  0  0
 14 15  1  0  0  0  0
 15 16  1  0  0  0  0
 15 19  1  0  0  0  0
 15 41  1  0  0  0  0
 16 17  1  0  0  0  0
 16 42  1  0  0  0  0
 16 43  1  0  0  0  0
 17 18  1  0  0  0  0
 17 44  1  0  0  0  0
 17 45  1  0  0  0  0
 18 19  1  0  0  0  0
 18 46  1  0  0  0  0
 18 47  1  0  0  0  0
 19 48  1  0  0  0  0
 19 49  1  0  0  0  0
 20 21  1  0  0  0  0
 22 29  1  0  0  0  0
 24 38  1  0  0  0  0
M  END
>  <score>
0.43043345212936401

$$$$
Z4183782499
 OpenBabel08202115463D

 39 42  0  0  0  0  0  0  0  0999 V2000
   -1.3823   -1.9520   -0.3009 O   0  0  0  0  0  0  0  0  0  0  0  0
    3.7914    0.8021    1.8350 O   0  0  0  0  0  0  0  0  0  0  0  0
    6.1966    2.3242    3.4098 O   0  0  0  0  0  0  0  0  0  0  0  0
   -3.5820   -2.0343   -1.8004 O   0  0  0  0  0  0  0  0  0  0  0  0
   -1.7376   -0.9048   -0.8162 C   0  0  0  0  0  0  0  0  0  0  0  0
    0.2372    0.3584   -0.0745 C   0  0  0  0  0  0  0  0  0  0  0  0
    0.9290   -0.7643    0.3409 C   0  0  0  0  0  0  0  0  0  0  0  0
    2.1364   -0.5970    0.9905 C   0  0  0  0  0  0  0  0  0  0  0  0
    2.6065    0.6876    1.2007 C   0  0  0  0  0  0  0  0  0  0  0  0
    4.1921    2.1577    2.1441 C   0  0  1  0  0  0  0  0  0  0  0  0
    3.8654    2.5123    3.6010 C   0  0  0  0  0  0  0  0  0  0  0  0
    5.1070    2.0917    4.3534 C   0  0  0  0  0  0  0  0  0  0  0  0
    5.7207    2.3086    2.0935 C   0  0  0  0  0  0  0  0  0  0  0  0
    0.7783    1.6043    0.1797 C   0  0  0  0  0  0  0  0  0  0  0  0
   -3.0047   -0.8211   -1.5521 C   0  0  0  0  0  0  0  0  0  0  0  0
   -4.7112   -1.6875   -2.4811 C   0  0  0  0  0  0  0  0  0  0  0  0
   -5.6239   -2.7992   -2.9290 C   0  0  0  0  0  0  0  0  0  0  0  0
   -5.4767   -3.4504   -4.2718 C   0  0  0  0  0  0  0  0  0  0  0  0
   -6.7260   -2.6978   -3.9361 C   0  0  0  0  0  0  0  0  0  0  0  0
   -1.0010    0.2341   -0.7469 N   0  0  0  0  0  0  0  0  0  0  0  0
    1.9443    1.7850    0.8073 N   0  0  0  0  0  0  0  0  0  0  0  0
   -3.6986    0.1580   -2.0200 N   0  0  0  0  0  0  0  0  0  0  0  0
   -4.8227   -0.4140   -2.6395 N   0  0  0  0  0  0  0  0  0  0  0  0
   -1.3540    1.0300   -1.1967 H   0  0  0  0  0  0  0  0  0  0  0  0
    0.5477   -1.7162    0.1676 H   0  0  0  0  0  0  0  0  0  0  0  0
    2.6819   -1.4206    1.3155 H   0  0  0  0  0  0  0  0  0  0  0  0
    3.7151    2.8345    1.4663 H   0  0  0  0  0  0  0  0  0  0  0  0
    3.6903    3.5624    3.7089 H   0  0  0  0  0  0  0  0  0  0  0  0
    3.0087    1.9703    3.9435 H   0  0  0  0  0  0  0  0  0  0  0  0
    5.2355    2.6852    5.2344 H   0  0  0  0  0  0  0  0  0  0  0  0
    5.0541    1.0578    4.6239 H   0  0  0  0  0  0  0  0  0  0  0  0
    5.9793    3.2238    1.6030 H   0  0  0  0  0  0  0  0  0  0  0  0
    6.1496    1.4849    1.5620 H   0  0  0  0  0  0  0  0  0  0  0  0
    0.2512    2.4444   -0.1334 H   0  0  0  0  0  0  0  0  0  0  0  0
   -5.8362   -3.4997   -2.1486 H   0  0  0  0  0  0  0  0  0  0  0  0
   -5.5004   -4.5169   -4.3547 H   0  0  0  0  0  0  0  0  0  0  0  0
   -4.7879   -3.0518   -4.9871 H   0  0  0  0  0  0  0  0  0  0  0  0
   -6.9304   -1.7617   -4.4124 H   0  0  0  0  0  0  0  0  0  0  0  0
   -7.6429   -3.2268   -3.7800 H   0  0  0  0  0  0  0  0  0  0  0  0
  5 20  1  0  0  0  0
  5 15  1  0  0  0  0
  5  1  2  0  0  0  0
  6 20  1  0  0  0  0
  6 14  1  0  0  0  0
  6  7  2  0  0  0  0
  7  8  1  0  0  0  0
  7 25  1  0  0  0  0
  8 26  1  0  0  0  0
  8  9  2  0  0  0  0
  9  2  1  0  0  0  0
  9 21  1  0  0  0  0
 10  2  1  0  0  0  0
 10 11  1  0  0  0  0
 10 13  1  0  0  0  0
 10 27  1  6  0  0  0
 11 12  1  0  0  0  0
 11 28  1  0  0  0  0
 11 29  1  0  0  0  0
 12  3  1  0  0  0  0
 12 30  1  0  0  0  0
 12 31  1  0  0  0  0
 13  3  1  0  0  0  0
 13 32  1  0  0  0  0
 13 33  1  0  0  0  0
 14 34  1  0  0  0  0
 14 21  2  0  0  0  0
 15  4  1  0  0  0  0
 15 22  2  0  0  0  0
 16 17  1  0  0  0  0
 16  4  1  0  0  0  0
 16 23  2  0  0  0  0
 17 18  1  0  0  0  0
 17 19  1  0  0  0  0
 17 35  1  0  0  0  0
 18 19  1  0  0  0  0
 18 36  1  0  0  0  0
 18 37  1  0  0  0  0
 19 38  1  0  0  0  0
 19 39  1  0  0  0  0
 20 24  1  0  0  0  0
 22 23  1  0  0  0  0
M  END
>  <score>
0.43046355247497559

$$$$
Z4298012569
 OpenBabel08202115463D

 46 48  0  0  0  0  0  0  0  0999 V2000
    5.1238    2.8108    4.1809 C   0  0  0  0  0  0  0  0  0  0  0  0
    4.8636    1.4316    2.2185 C   0  0  1  0  0  0  0  0  0  0  0  0
    5.0606    0.0320    2.7898 C   0  0  0  0  0  0  0  0  0  0  0  0
    4.3374   -0.5668    1.5662 C   0  0  0  0  0  0  0  0  0  0  0  0
    3.8574    0.8370    1.1763 C   0  0  1  0  0  0  0  0  0  0  0  0
    2.3952    1.1096    1.4898 C   0  0  0  0  0  0  0  0  0  0  0  0
    1.3958    0.3271    0.6604 C   0  0  0  0  0  0  0  0  0  0  0  0
   -0.9015    0.2296   -0.1975 C   0  0  2  0  0  0  0  0  0  0  0  0
   -1.1203    0.7149   -1.6614 C   0  0  0  0  0  0  0  0  0  0  0  0
   -2.6426    0.8436   -1.3967 C   0  0  1  0  0  0  0  0  0  0  0  0
   -3.4713   -0.3126   -1.9043 C   0  0  0  0  0  0  0  0  0  0  0  0
   -4.5956   -0.0805   -2.6813 C   0  0  0  0  0  0  0  0  0  0  0  0
   -5.3009   -1.1444   -3.2112 C   0  0  0  0  0  0  0  0  0  0  0  0
   -4.8811   -2.4433   -2.9703 C   0  0  0  0  0  0  0  0  0  0  0  0
   -5.6402   -3.5940   -3.5479 C   0  0  0  0  0  0  0  0  0  0  0  0
   -3.7601   -2.6747   -2.1956 C   0  0  0  0  0  0  0  0  0  0  0  0
   -3.0526   -1.6077   -1.6640 C   0  0  0  0  0  0  0  0  0  0  0  0
   -2.3063    0.7858    0.1250 C   0  0  0  0  0  0  0  0  0  0  0  0
    4.2865    2.3550    3.1246 O   0  0  0  0  0  0  0  0  0  0  0  0
    1.6892   -0.7606    0.1659 O   0  0  0  0  0  0  0  0  0  0  0  0
    0.1960    0.8951    0.5091 N   0  0  0  0  0  0  0  0  0  0  0  0
   -6.9603   -3.4018   -3.5648 F   0  0  0  0  0  0  0  0  0  0  0  0
   -5.4283   -4.7428   -2.9039 F   0  0  0  0  0  0  0  0  0  0  0  0
   -5.3040   -3.8381   -4.8152 F   0  0  0  0  0  0  0  0  0  0  0  0
    5.4650    1.9734    4.7529 H   0  0  0  0  0  0  0  0  0  0  0  0
    4.5708    3.4731    4.8136 H   0  0  0  0  0  0  0  0  0  0  0  0
    5.9654    3.3287    3.7704 H   0  0  0  0  0  0  0  0  0  0  0  0
    5.7444    1.8585    1.7861 H   0  0  0  0  0  0  0  0  0  0  0  0
    4.5580   -0.1352    3.7195 H   0  0  0  0  0  0  0  0  0  0  0  0
    6.0851   -0.2632    2.8795 H   0  0  0  0  0  0  0  0  0  0  0  0
    3.5489   -1.2468    1.8127 H   0  0  0  0  0  0  0  0  0  0  0  0
    4.9902   -1.0212    0.8505 H   0  0  0  0  0  0  0  0  0  0  0  0
    4.0615    1.1074    0.1614 H   0  0  0  0  0  0  0  0  0  0  0  0
    2.2123    2.1517    1.3305 H   0  0  0  0  0  0  0  0  0  0  0  0
    2.2284    0.8710    2.5195 H   0  0  0  0  0  0  0  0  0  0  0  0
    0.0448    1.7880    0.8838 H   0  0  0  0  0  0  0  0  0  0  0  0
   -0.8057   -0.8305   -0.0886 H   0  0  0  0  0  0  0  0  0  0  0  0
   -0.6376    1.6421   -1.8900 H   0  0  0  0  0  0  0  0  0  0  0  0
   -0.8669   -0.0123   -2.4042 H   0  0  0  0  0  0  0  0  0  0  0  0
   -3.0769    1.7651   -1.7239 H   0  0  0  0  0  0  0  0  0  0  0  0
   -4.9083    0.8942   -2.8654 H   0  0  0  0  0  0  0  0  0  0  0  0
   -6.1467   -0.9703   -3.7908 H   0  0  0  0  0  0  0  0  0  0  0  0
   -3.4475   -3.6493   -2.0114 H   0  0  0  0  0  0  0  0  0  0  0  0
   -2.2068   -1.7817   -1.0844 H   0  0  0  0  0  0  0  0  0  0  0  0
   -2.9238    0.1126    0.6821 H   0  0  0  0  0  0  0  0  0  0  0  0
   -2.2963    1.7418    0.6054 H   0  0  0  0  0  0  0  0  0  0  0  0
  1 19  1  0  0  0  0
  1 25  1  0  0  0  0
  1 26  1  0  0  0  0
  1 27  1  0  0  0  0
  2 19  1  0  0  0  0
  2  3  1  0  0  0  0
  2  5  1  0  0  0  0
  2 28  1  6  0  0  0
  3  4  1  0  0  0  0
  3 29  1  0  0  0  0
  3 30  1  0  0  0  0
  4  5  1  0  0  0  0
  4 31  1  0  0  0  0
  4 32  1  0  0  0  0
  5  6  1  0  0  0  0
  5 33  1  6  0  0  0
  6  7  1  0  0  0  0
  6 34  1  0  0  0  0
  6 35  1  0  0  0  0
  7 21  1  0  0  0  0
  7 20  2  0  0  0  0
  8 21  1  0  0  0  0
  8  9  1  0  0  0  0
  8 18  1  0  0  0  0
  8 37  1  1  0  0  0
  9 10  1  0  0  0  0
  9 38  1  0  0  0  0
  9 39  1  0  0  0  0
 10 11  1  0  0  0  0
 10 18  1  0  0  0  0
 10 40  1  6  0  0  0
 11 17  1  0  0  0  0
 11 12  2  0  0  0  0
 12 13  1  0  0  0  0
 12 41  1  0  0  0  0
 13 42  1  0  0  0  0
 13 14  2  0  0  0  0
 14 15  1  0  0  0  0
 14 16  1  0  0  0  0
 15 22  1  0  0  0  0
 15 23  1  0  0  0  0
 15 24  1  0  0  0  0
 16 43  1  0  0  0  0
 16 17  2  0  0  0  0
 17 44  1  0  0  0  0
 18 45  1  0  0  0  0
 18 46  1  0  0  0  0
 21 36  1  0  0  0  0
M  END
>  <score>
0.43090683221817017

$$$$
PV-003788434884
 OpenBabel08202115463D

 47 49  0  0  0  0  0  0  0  0999 V2000
    2.0286    0.4335    0.8659 O   0  0  0  0  0  0  0  0  0  0  0  0
   -4.7671   -0.2221   -2.6156 O   0  0  0  0  0  0  0  0  0  0  0  0
   -4.3117   -3.7882   -2.3627 O   0  0  0  0  0  0  0  0  0  0  0  0
    1.8526    1.5907    1.2449 C   0  0  0  0  0  0  0  0  0  0  0  0
    2.9944    2.4271    1.7574 C   0  0  0  0  0  0  0  0  0  0  0  0
    4.3503    1.7696    1.5583 C   0  0  1  0  0  0  0  0  0  0  0  0
    5.4969    2.7112    1.8399 C   0  0  0  0  0  0  0  0  0  0  0  0
    3.9699   -0.7097    2.1077 C   0  0  0  0  0  0  0  0  0  0  0  0
    4.3969   -1.5002    3.1481 C   0  0  0  0  0  0  0  0  0  0  0  0
    5.1581   -0.6538    3.9656 C   0  0  0  0  0  0  0  0  0  0  0  0
   -0.5619    1.4701    0.8924 C   0  0  0  0  0  0  0  0  0  0  0  0
   -0.7336    1.2868   -0.6162 C   0  0  1  0  0  0  0  0  0  0  0  0
   -0.3399    0.1052   -1.4462 C   0  0  0  0  0  0  0  0  0  0  0  0
   -1.7853    0.4818   -1.3127 C   0  0  1  0  0  0  0  0  0  0  0  0
   -2.8270   -0.3540   -0.6109 C   0  0  0  0  0  0  0  0  0  0  0  0
   -4.3151   -1.3244   -2.3096 C   0  0  0  0  0  0  0  0  0  0  0  0
   -4.9077   -2.5988   -2.8788 C   0  0  0  0  0  0  0  0  0  0  0  0
   -5.3606   -2.6576   -4.3038 C   0  0  0  0  0  0  0  0  0  0  0  0
   -6.3705   -2.6798   -3.1994 C   0  0  0  0  0  0  0  0  0  0  0  0
    6.6927    2.1370    1.5231 F   0  0  0  0  0  0  0  0  0  0  0  0
    5.5711    2.9949    3.1729 F   0  0  0  0  0  0  0  0  0  0  0  0
    4.4684    0.5302    2.3272 N   0  0  0  0  0  0  0  0  0  0  0  0
    5.1981    0.5868    3.4706 N   0  0  0  0  0  0  0  0  0  0  0  0
    0.6592    2.1851    1.2323 N   0  0  0  0  0  0  0  0  0  0  0  0
   -3.3427   -1.4757   -1.3977 N   0  0  0  0  0  0  0  0  0  0  0  0
    2.8489    2.5976    2.8036 H   0  0  0  0  0  0  0  0  0  0  0  0
    2.9904    3.3631    1.2390 H   0  0  0  0  0  0  0  0  0  0  0  0
    4.4158    1.5064    0.5233 H   0  0  0  0  0  0  0  0  0  0  0  0
    5.3480    3.6065    1.2731 H   0  0  0  0  0  0  0  0  0  0  0  0
    3.3777   -1.0068    1.3060 H   0  0  0  0  0  0  0  0  0  0  0  0
    4.1977   -2.5100    3.2967 H   0  0  0  0  0  0  0  0  0  0  0  0
    5.6302   -0.9522    4.8429 H   0  0  0  0  0  0  0  0  0  0  0  0
    0.6023    3.1366    1.4599 H   0  0  0  0  0  0  0  0  0  0  0  0
   -1.3982    2.0218    1.2681 H   0  0  0  0  0  0  0  0  0  0  0  0
   -0.5341    0.5052    1.3540 H   0  0  0  0  0  0  0  0  0  0  0  0
   -0.5425    2.2038   -1.1333 H   0  0  0  0  0  0  0  0  0  0  0  0
    0.0277   -0.7818   -0.9739 H   0  0  0  0  0  0  0  0  0  0  0  0
    0.1670    0.2504   -2.3773 H   0  0  0  0  0  0  0  0  0  0  0  0
   -2.1713    0.9661   -2.1852 H   0  0  0  0  0  0  0  0  0  0  0  0
   -3.6496    0.2819   -0.3582 H   0  0  0  0  0  0  0  0  0  0  0  0
   -2.3914   -0.7470    0.2840 H   0  0  0  0  0  0  0  0  0  0  0  0
   -2.9645   -2.3682   -1.2532 H   0  0  0  0  0  0  0  0  0  0  0  0
   -4.7943   -4.0770   -1.5847 H   0  0  0  0  0  0  0  0  0  0  0  0
   -5.1844   -3.5388   -4.8847 H   0  0  0  0  0  0  0  0  0  0  0  0
   -5.2713   -1.7939   -4.9291 H   0  0  0  0  0  0  0  0  0  0  0  0
   -7.0020   -1.8319   -3.0348 H   0  0  0  0  0  0  0  0  0  0  0  0
   -6.9151   -3.5768   -2.9904 H   0  0  0  0  0  0  0  0  0  0  0  0
  3 43  1  0  0  0  0
  4  5  1  0  0  0  0
  4 24  1  0  0  0  0
  4  1  2  0  0  0  0
  5  6  1  0  0  0  0
  5 26  1  0  0  0  0
  5 27  1  0  0  0  0
  6  7  1  0  0  0  0
  6 22  1  0  0  0  0
  6 28  1  6  0  0  0
  7 20  1  0  0  0  0
  7 21  1  0  0  0  0
  7 29  1  0  0  0  0
  8 22  1  0  0  0  0
  8 30  1  0  0  0  0
  8  9  2  0  0  0  0
  9 10  1  0  0  0  0
  9 31  1  0  0  0  0
 10 32  1  0  0  0  0
 10 23  2  0  0  0  0
 11 24  1  0  0  0  0
 11 12  1  0  0  0  0
 11 34  1  0  0  0  0
 11 35  1  0  0  0  0
 12 13  1  0  0  0  0
 12 14  1  0  0  0  0
 12 36  1  6  0  0  0
 13 14  1  0  0  0  0
 13 37  1  0  0  0  0
 13 38  1  0  0  0  0
 14 15  1  0  0  0  0
 14 39  1  6  0  0  0
 15 25  1  0  0  0  0
 15 40  1  0  0  0  0
 15 41  1  0  0  0  0
 16 25  1  0  0  0  0
 16 17  1  0  0  0  0
 16  2  2  0  0  0  0
 17  3  1  0  0  0  0
 17 18  1  0  0  0  0
 17 19  1  0  0  0  0
 18 19  1  0  0  0  0
 18 44  1  0  0  0  0
 18 45  1  0  0  0  0
 19 46  1  0  0  0  0
 19 47  1  0  0  0  0
 22 23  1  0  0  0  0
 24 33  1  0  0  0  0
 25 42  1  0  0  0  0
M  END
>  <score>
0.43093591928482056

$$$$
PV-004120396978
 OpenBabel08202115463D

 55 57  0  0  0  0  0  0  0  0999 V2000
    5.5753    0.5325    4.4281 C   0  0  0  0  0  0  0  0  0  0  0  0
    4.9321    1.1580    3.1822 C   0  0  1  0  0  0  0  0  0  0  0  0
    3.5196    0.6387    2.9477 C   0  0  0  0  0  0  0  0  0  0  0  0
    2.7902    1.3835    1.8618 C   0  0  0  0  0  0  0  0  0  0  0  0
    0.5750    2.0791    1.0941 C   0  0  0  0  0  0  0  0  0  0  0  0
   -0.0122    1.0813    0.0830 C   0  0  0  0  0  0  0  0  0  0  0  0
   -1.1134    1.7517   -0.7060 C   0  0  0  0  0  0  0  0  0  0  0  0
   -2.7859    0.0470   -1.2672 C   0  0  0  0  0  0  0  0  0  0  0  0
   -3.3554   -0.8397   -2.3466 C   0  0  0  0  0  0  0  0  0  0  0  0
   -4.4901   -1.7233   -1.8543 C   0  0  0  0  0  0  0  0  0  0  0  0
   -5.2932   -2.3781   -2.9166 C   0  0  0  0  0  0  0  0  0  0  0  0
   -5.0117   -3.1875   -3.9493 C   0  0  0  0  0  0  0  0  0  0  0  0
   -6.2465   -3.4740   -4.5919 C   0  0  0  0  0  0  0  0  0  0  0  0
   -7.1927   -2.8089   -3.9087 C   0  0  0  0  0  0  0  0  0  0  0  0
   -0.5347   -0.1925    0.7968 C   0  0  0  0  0  0  0  0  0  0  0  0
   -0.3347   -1.3023   -0.1731 C   0  0  0  0  0  0  0  0  0  0  0  0
    0.6616   -0.8821   -1.1546 C   0  0  0  0  0  0  0  0  0  0  0  0
    1.0802    0.5327   -0.8497 C   0  0  0  0  0  0  0  0  0  0  0  0
    5.3218    2.5671    2.8620 C   0  0  0  0  0  0  0  0  0  0  0  0
    5.8714    1.4324    2.0501 C   0  0  1  0  0  0  0  0  0  0  0  0
    3.3280    1.8913    0.8951 O   0  0  0  0  0  0  0  0  0  0  0  0
   -3.2380    0.0308   -0.1231 O   0  0  0  0  0  0  0  0  0  0  0  0
   -6.6395   -2.1195   -2.8629 O   0  0  0  0  0  0  0  0  0  0  0  0
    1.4689    1.4435    2.0506 N   0  0  0  0  0  0  0  0  0  0  0  0
   -1.7736    0.8360   -1.6383 N   0  0  0  0  0  0  0  0  0  0  0  0
    7.2111    1.1180    2.2914 F   0  0  0  0  0  0  0  0  0  0  0  0
    6.4838    1.0487    4.6585 H   0  0  0  0  0  0  0  0  0  0  0  0
    5.7894   -0.4987    4.2391 H   0  0  0  0  0  0  0  0  0  0  0  0
    4.9009    0.6115    5.2551 H   0  0  0  0  0  0  0  0  0  0  0  0
    2.9657    0.7353    3.8581 H   0  0  0  0  0  0  0  0  0  0  0  0
    3.5776   -0.3937    2.6727 H   0  0  0  0  0  0  0  0  0  0  0  0
    1.0885    1.0458    2.8614 H   0  0  0  0  0  0  0  0  0  0  0  0
    1.1214    2.8276    0.5592 H   0  0  0  0  0  0  0  0  0  0  0  0
   -0.2295    2.5383    1.6295 H   0  0  0  0  0  0  0  0  0  0  0  0
   -0.6916    2.5624   -1.2626 H   0  0  0  0  0  0  0  0  0  0  0  0
   -1.8439    2.1300   -0.0219 H   0  0  0  0  0  0  0  0  0  0  0  0
   -1.4622    0.8006   -2.5668 H   0  0  0  0  0  0  0  0  0  0  0  0
   -2.5731   -1.4668   -2.7203 H   0  0  0  0  0  0  0  0  0  0  0  0
   -3.7247   -0.2200   -3.1369 H   0  0  0  0  0  0  0  0  0  0  0  0
   -5.1493   -1.1178   -1.2680 H   0  0  0  0  0  0  0  0  0  0  0  0
   -4.0680   -2.4905   -1.2394 H   0  0  0  0  0  0  0  0  0  0  0  0
   -4.0721   -3.5373   -4.2257 H   0  0  0  0  0  0  0  0  0  0  0  0
   -6.3893   -4.0788   -5.4259 H   0  0  0  0  0  0  0  0  0  0  0  0
   -8.2062   -2.8165   -4.1419 H   0  0  0  0  0  0  0  0  0  0  0  0
   -1.5722   -0.0878    1.0362 H   0  0  0  0  0  0  0  0  0  0  0  0
    0.0220   -0.3740    1.6924 H   0  0  0  0  0  0  0  0  0  0  0  0
   -1.2584   -1.5214   -0.6668 H   0  0  0  0  0  0  0  0  0  0  0  0
    0.0107   -2.1743    0.3419 H   0  0  0  0  0  0  0  0  0  0  0  0
    1.5130   -1.5280   -1.1010 H   0  0  0  0  0  0  0  0  0  0  0  0
    0.2397   -0.9280   -2.1368 H   0  0  0  0  0  0  0  0  0  0  0  0
    1.1318    1.1110   -1.7485 H   0  0  0  0  0  0  0  0  0  0  0  0
    2.0322    0.5457   -0.3615 H   0  0  0  0  0  0  0  0  0  0  0  0
    5.9622    3.1091    3.5261 H   0  0  0  0  0  0  0  0  0  0  0  0
    4.6059    3.2356    2.4314 H   0  0  0  0  0  0  0  0  0  0  0  0
    5.4824    1.3151    1.0603 H   0  0  0  0  0  0  0  0  0  0  0  0
  1 27  1  0  0  0  0
  1 28  1  0  0  0  0
  1 29  1  0  0  0  0
  2  1  1  1  0  0  0
  2  3  1  0  0  0  0
  2 19  1  0  0  0  0
  2 20  1  0  0  0  0
  3  4  1  0  0  0  0
  3 30  1  0  0  0  0
  3 31  1  0  0  0  0
  4 24  1  0  0  0  0
  4 21  2  0  0  0  0
  5 24  1  0  0  0  0
  5  6  1  0  0  0  0
  5 33  1  0  0  0  0
  5 34  1  0  0  0  0
  6  7  1  0  0  0  0
  6 15  1  0  0  0  0
  6 18  1  0  0  0  0
  7 25  1  0  0  0  0
  7 35  1  0  0  0  0
  7 36  1  0  0  0  0
  8 25  1  0  0  0  0
  8  9  1  0  0  0  0
  8 22  2  0  0  0  0
  9 10  1  0  0  0  0
  9 38  1  0  0  0  0
  9 39  1  0  0  0  0
 10 11  1  0  0  0  0
 10 40  1  0  0  0  0
 10 41  1  0  0  0  0
 11 23  1  0  0  0  0
 11 12  2  0  0  0  0
 12 13  1  0  0  0  0
 12 42  1  0  0  0  0
 13 43  1  0  0  0  0
 13 14  2  0  0  0  0
 14 23  1  0  0  0  0
 14 44  1  0  0  0  0
 15 16  1  0  0  0  0
 15 45  1  0  0  0  0
 15 46  1  0  0  0  0
 16 17  1  0  0  0  0
 16 47  1  0  0  0  0
 16 48  1  0  0  0  0
 17 18  1  0  0  0  0
 17 49  1  0  0  0  0
 17 50  1  0  0  0  0
 18 51  1  0  0  0  0
 18 52  1  0  0  0  0
 19 20  1  0  0  0  0
 19 53  1  0  0  0  0
 19 54  1  0  0  0  0
 20 26  1  0  0  0  0
 20 55  1  6  0  0  0
 24 32  1  0  0  0  0
 25 37  1  0  0  0  0
M  END
>  <score>
0.43098998069763184

$$$$
PV-003393014197
 OpenBabel08202115463D

 54 57  0  0  0  0  0  0  0  0999 V2000
    5.4039   -0.2139    2.9819 C   0  0  0  0  0  0  0  0  0  0  0  0
    6.3733    1.9415    3.5415 C   0  0  0  0  0  0  0  0  0  0  0  0
    3.9745    1.7425    3.1938 C   0  0  0  0  0  0  0  0  0  0  0  0
    3.8890    1.7566    1.6677 C   0  0  1  0  0  0  0  0  0  0  0  0
    3.4349    0.4088    1.0280 C   0  0  0  0  0  0  0  0  0  0  0  0
    1.9976    0.9548    0.8766 C   0  0  2  0  0  0  0  0  0  0  0  0
    1.3775    0.7325   -0.4892 C   0  0  0  0  0  0  0  0  0  0  0  0
   -0.7651    0.6845   -1.8374 C   0  0  0  0  0  0  0  0  0  0  0  0
   -1.3557    0.4427   -0.4138 C   0  0  1  0  0  0  0  0  0  0  0  0
   -2.0414    1.8351   -0.1726 C   0  0  0  0  0  0  0  0  0  0  0  0
   -0.9483    0.9456    0.5212 C   0  0  1  0  0  0  0  0  0  0  0  0
   -1.7067   -0.4170    0.5624 C   0  0  0  0  0  0  0  0  0  0  0  0
   -3.4146   -1.3873   -1.0380 C   0  0  0  0  0  0  0  0  0  0  0  0
   -4.1797   -1.1140   -2.3052 C   0  0  0  0  0  0  0  0  0  0  0  0
   -5.2396   -2.1491   -2.5906 C   0  0  0  0  0  0  0  0  0  0  0  0
   -5.6040   -4.0422   -3.7809 C   0  0  0  0  0  0  0  0  0  0  0  0
   -6.5238   -2.9734   -4.2793 C   0  0  0  0  0  0  0  0  0  0  0  0
    2.5885    2.3790    1.0975 C   0  0  0  0  0  0  0  0  0  0  0  0
    5.1945    1.0661    3.6857 N   0  0  0  0  0  0  0  0  0  0  0  0
    0.0369    0.7817   -0.5939 N   0  0  0  0  0  0  0  0  0  0  0  0
   -2.5504   -0.4260   -0.6570 N   0  0  0  0  0  0  0  0  0  0  0  0
    2.1266    0.5194   -1.4290 O   0  0  0  0  0  0  0  0  0  0  0  0
   -3.5810   -2.4283   -0.4036 O   0  0  0  0  0  0  0  0  0  0  0  0
   -4.6481   -3.3725   -2.9513 O   0  0  0  0  0  0  0  0  0  0  0  0
   -6.0171   -1.7662   -3.7072 O   0  0  0  0  0  0  0  0  0  0  0  0
    6.2605   -0.7093    3.3891 H   0  0  0  0  0  0  0  0  0  0  0  0
    5.5622   -0.0262    1.9405 H   0  0  0  0  0  0  0  0  0  0  0  0
    4.5409   -0.8342    3.1060 H   0  0  0  0  0  0  0  0  0  0  0  0
    6.5371    2.1522    2.5053 H   0  0  0  0  0  0  0  0  0  0  0  0
    7.2337    1.4502    3.9456 H   0  0  0  0  0  0  0  0  0  0  0  0
    6.2041    2.8570    4.0689 H   0  0  0  0  0  0  0  0  0  0  0  0
    3.9761    2.7526    3.5468 H   0  0  0  0  0  0  0  0  0  0  0  0
    3.1184    1.2303    3.5807 H   0  0  0  0  0  0  0  0  0  0  0  0
    4.7931    2.1614    1.2631 H   0  0  0  0  0  0  0  0  0  0  0  0
    3.9154    0.1841    0.0988 H   0  0  0  0  0  0  0  0  0  0  0  0
    3.5140   -0.4330    1.6838 H   0  0  0  0  0  0  0  0  0  0  0  0
    1.3156    0.6322    1.6353 H   0  0  0  0  0  0  0  0  0  0  0  0
   -0.4944    1.4622   -2.5207 H   0  0  0  0  0  0  0  0  0  0  0  0
   -0.6205   -0.2674   -2.3042 H   0  0  0  0  0  0  0  0  0  0  0  0
   -0.6632    0.1319    0.3405 H   0  0  0  0  0  0  0  0  0  0  0  0
   -1.6741    2.7945   -0.4719 H   0  0  0  0  0  0  0  0  0  0  0  0
   -2.9216    1.9595    0.4229 H   0  0  0  0  0  0  0  0  0  0  0  0
   -0.5756    1.3064    1.4570 H   0  0  0  0  0  0  0  0  0  0  0  0
   -2.3148   -0.4820    1.4404 H   0  0  0  0  0  0  0  0  0  0  0  0
   -1.0145   -1.2328    0.5462 H   0  0  0  0  0  0  0  0  0  0  0  0
   -3.4898   -1.0985   -3.1230 H   0  0  0  0  0  0  0  0  0  0  0  0
   -4.6521   -0.1578   -2.2183 H   0  0  0  0  0  0  0  0  0  0  0  0
   -5.8595   -2.2729   -1.7274 H   0  0  0  0  0  0  0  0  0  0  0  0
   -6.1479   -4.7677   -3.2128 H   0  0  0  0  0  0  0  0  0  0  0  0
   -5.1138   -4.5247   -4.6005 H   0  0  0  0  0  0  0  0  0  0  0  0
   -6.5008   -2.9236   -5.3478 H   0  0  0  0  0  0  0  0  0  0  0  0
   -7.5261   -3.1548   -3.9516 H   0  0  0  0  0  0  0  0  0  0  0  0
    2.0439    2.9724    1.8019 H   0  0  0  0  0  0  0  0  0  0  0  0
    2.7311    2.9365    0.1955 H   0  0  0  0  0  0  0  0  0  0  0  0
  1 19  1  0  0  0  0
  1 26  1  0  0  0  0
  1 27  1  0  0  0  0
  1 28  1  0  0  0  0
  2 19  1  0  0  0  0
  2 29  1  0  0  0  0
  2 30  1  0  0  0  0
  2 31  1  0  0  0  0
  3 19  1  0  0  0  0
  3  4  1  0  0  0  0
  3 32  1  0  0  0  0
  3 33  1  0  0  0  0
  4  5  1  0  0  0  0
  4 18  1  0  0  0  0
  4 34  1  6  0  0  0
  5  6  1  0  0  0  0
  5 35  1  0  0  0  0
  5 36  1  0  0  0  0
  6  7  1  0  0  0  0
  6 18  1  0  0  0  0
  6 37  1  1  0  0  0
  7 20  1  0  0  0  0
  7 22  2  0  0  0  0
  8 20  1  0  0  0  0
  8  9  1  0  0  0  0
  8 38  1  0  0  0  0
  8 39  1  0  0  0  0
  9 10  1  0  0  0  0
  9 21  1  0  0  0  0
  9 40  1  1  0  0  0
 10 11  1  0  0  0  0
 10 41  1  0  0  0  0
 10 42  1  0  0  0  0
 11 20  1  0  0  0  0
 11 12  1  0  0  0  0
 11 43  1  1  0  0  0
 12 21  1  0  0  0  0
 12 44  1  0  0  0  0
 12 45  1  0  0  0  0
 13 21  1  0  0  0  0
 13 14  1  0  0  0  0
 13 23  2  0  0  0  0
 14 15  1  0  0  0  0
 14 46  1  0  0  0  0
 14 47  1  0  0  0  0
 15 24  1  0  0  0  0
 15 25  1  0  0  0  0
 15 48  1  0  0  0  0
 16 24  1  0  0  0  0
 16 17  1  0  0  0  0
 16 49  1  0  0  0  0
 16 50  1  0  0  0  0
 17 25  1  0  0  0  0
 17 51  1  0  0  0  0
 17 52  1  0  0  0  0
 18 53  1  0  0  0  0
 18 54  1  0  0  0  0
M  END
>  <score>
0.43108505010604858

$$$$
PV-004141423449
 OpenBabel08202115463D

 56 57  0  0  0  0  0  0  0  0999 V2000
   -6.3581   -2.4001   -3.1854 C   0  0  0  0  0  0  0  0  0  0  0  0
   -5.5457   -3.6805   -3.1581 C   0  0  0  0  0  0  0  0  0  0  0  0
   -4.6908   -3.7495   -1.9035 C   0  0  1  0  0  0  0  0  0  0  0  0
   -3.7525   -4.9437   -1.9652 C   0  0  0  0  0  0  0  0  0  0  0  0
   -3.9422   -2.4687   -1.6800 C   0  0  0  0  0  0  0  0  0  0  0  0
   -3.9735   -0.2156   -1.4548 C   0  0  0  0  0  0  0  0  0  0  0  0
   -2.6041   -0.2043   -1.2826 C   0  0  0  0  0  0  0  0  0  0  0  0
   -0.5188    1.0468   -0.7886 C   0  0  0  0  0  0  0  0  0  0  0  0
   -0.0370    2.4565   -0.5860 C   0  0  1  0  0  0  0  0  0  0  0  0
    0.1981    2.8356    0.8718 C   0  0  0  0  0  0  0  0  0  0  0  0
    1.6093    3.3419    0.5103 C   0  0  0  0  0  0  0  0  0  0  0  0
    1.4915    2.6604   -0.8589 C   0  0  1  0  0  0  0  0  0  0  0  0
    2.2791    1.3766   -0.9866 C   0  0  0  0  0  0  0  0  0  0  0  0
    3.4494    1.1894    1.2051 C   0  0  0  0  0  0  0  0  0  0  0  0
    4.8697    1.0379    3.1586 C   0  0  0  0  0  0  0  0  0  0  0  0
    6.3434    1.1781    3.5033 C   0  0  0  0  0  0  0  0  0  0  0  0
    4.2544   -0.2342    3.6620 C   0  0  0  0  0  0  0  0  0  0  0  0
    4.0983    2.2476    3.6534 C   0  0  0  0  0  0  0  0  0  0  0  0
   -1.9639   -1.4285   -1.3235 C   0  0  0  0  0  0  0  0  0  0  0  0
   -4.6652   -1.3466   -1.6575 N   0  0  0  0  0  0  0  0  0  0  0  0
   -1.8462    0.9619   -1.0727 N   0  0  0  0  0  0  0  0  0  0  0  0
    3.4724    1.3633   -0.1386 N   0  0  0  0  0  0  0  0  0  0  0  0
   -2.6231   -2.5816   -1.5255 N   0  0  0  0  0  0  0  0  0  0  0  0
    0.1893    0.0599   -0.7114 O   0  0  0  0  0  0  0  0  0  0  0  0
    2.4471    1.0806    1.8655 O   0  0  0  0  0  0  0  0  0  0  0  0
    4.7128    1.1563    1.6916 O   0  0  0  0  0  0  0  0  0  0  0  0
   -7.1061   -2.4678   -3.9475 H   0  0  0  0  0  0  0  0  0  0  0  0
   -5.7122   -1.5726   -3.3924 H   0  0  0  0  0  0  0  0  0  0  0  0
   -6.8292   -2.2566   -2.2354 H   0  0  0  0  0  0  0  0  0  0  0  0
   -4.9098   -3.7110   -4.0181 H   0  0  0  0  0  0  0  0  0  0  0  0
   -6.2109   -4.5185   -3.1759 H   0  0  0  0  0  0  0  0  0  0  0  0
   -5.3465   -3.8934   -1.0703 H   0  0  0  0  0  0  0  0  0  0  0  0
   -3.7959   -5.3820   -2.9403 H   0  0  0  0  0  0  0  0  0  0  0  0
   -4.0488   -5.6678   -1.2353 H   0  0  0  0  0  0  0  0  0  0  0  0
   -2.7522   -4.6218   -1.7633 H   0  0  0  0  0  0  0  0  0  0  0  0
   -4.4887    0.6874   -1.4261 H   0  0  0  0  0  0  0  0  0  0  0  0
   -2.3305    1.8113   -1.1389 H   0  0  0  0  0  0  0  0  0  0  0  0
   -0.6733    3.1315   -1.1193 H   0  0  0  0  0  0  0  0  0  0  0  0
    0.1913    2.0047    1.5459 H   0  0  0  0  0  0  0  0  0  0  0  0
   -0.4592    3.5970    1.2368 H   0  0  0  0  0  0  0  0  0  0  0  0
    2.3880    2.9487    1.1300 H   0  0  0  0  0  0  0  0  0  0  0  0
    1.6939    4.4075    0.4636 H   0  0  0  0  0  0  0  0  0  0  0  0
    1.7106    3.2980   -1.6898 H   0  0  0  0  0  0  0  0  0  0  0  0
    2.5818    1.2601   -2.0063 H   0  0  0  0  0  0  0  0  0  0  0  0
    1.6494    0.5586   -0.7052 H   0  0  0  0  0  0  0  0  0  0  0  0
    4.3434    1.4881   -0.5702 H   0  0  0  0  0  0  0  0  0  0  0  0
    6.7919    1.9089    2.8632 H   0  0  0  0  0  0  0  0  0  0  0  0
    6.8326    0.2363    3.3668 H   0  0  0  0  0  0  0  0  0  0  0  0
    6.4431    1.4879    4.5226 H   0  0  0  0  0  0  0  0  0  0  0  0
    4.0398   -0.1385    4.7059 H   0  0  0  0  0  0  0  0  0  0  0  0
    4.9370   -1.0443    3.5112 H   0  0  0  0  0  0  0  0  0  0  0  0
    3.3475   -0.4272    3.1279 H   0  0  0  0  0  0  0  0  0  0  0  0
    3.6799    2.7703    2.8188 H   0  0  0  0  0  0  0  0  0  0  0  0
    4.7597    2.8984    4.1864 H   0  0  0  0  0  0  0  0  0  0  0  0
    3.3116    1.9271    4.3040 H   0  0  0  0  0  0  0  0  0  0  0  0
   -0.9325   -1.4582   -1.1931 H   0  0  0  0  0  0  0  0  0  0  0  0
  1  2  1  0  0  0  0
  1 27  1  0  0  0  0
  1 28  1  0  0  0  0
  1 29  1  0  0  0  0
  2  3  1  0  0  0  0
  2 30  1  0  0  0  0
  2 31  1  0  0  0  0
  3  4  1  0  0  0  0
  3  5  1  0  0  0  0
  3 32  1  1  0  0  0
  4 33  1  0  0  0  0
  4 34  1  0  0  0  0
  4 35  1  0  0  0  0
  5 23  1  0  0  0  0
  5 20  2  0  0  0  0
  6 20  1  0  0  0  0
  6 36  1  0  0  0  0
  6  7  2  0  0  0  0
  7 21  1  0  0  0  0
  7 19  1  0  0  0  0
  8 21  1  0  0  0  0
  8  9  1  0  0  0  0
  8 24  2  0  0  0  0
  9 10  1  0  0  0  0
  9 12  1  0  0  0  0
  9 38  1  6  0  0  0
 10 11  1  0  0  0  0
 10 39  1  0  0  0  0
 10 40  1  0  0  0  0
 11 12  1  0  0  0  0
 11 41  1  0  0  0  0
 11 42  1  0  0  0  0
 12 13  1  0  0  0  0
 12 43  1  6  0  0  0
 13 22  1  0  0  0  0
 13 44  1  0  0  0  0
 13 45  1  0  0  0  0
 14 22  1  0  0  0  0
 14 26  1  0  0  0  0
 14 25  2  0  0  0  0
 15 26  1  0  0  0  0
 15 16  1  0  0  0  0
 15 17  1  0  0  0  0
 15 18  1  0  0  0  0
 16 47  1  0  0  0  0
 16 48  1  0  0  0  0
 16 49  1  0  0  0  0
 17 50  1  0  0  0  0
 17 51  1  0  0  0  0
 17 52  1  0  0  0  0
 18 53  1  0  0  0  0
 18 54  1  0  0  0  0
 18 55  1  0  0  0  0
 19 56  1  0  0  0  0
 19 23  2  0  0  0  0
 21 37  1  0  0  0  0
 22 46  1  0  0  0  0
M  END
>  <score>
0.43130433559417725

$$$$
Z4328658757
 OpenBabel08202115463D

 45 46  0  0  0  0  0  0  0  0999 V2000
   -6.9273   -3.4276   -4.2859 C   0  0  0  0  0  0  0  0  0  0  0  0
   -5.4494   -1.9742   -3.1643 C   0  0  0  0  0  0  0  0  0  0  0  0
   -4.0782   -1.8435   -2.6090 C   0  0  0  0  0  0  0  0  0  0  0  0
   -3.3534   -3.0199   -2.5746 C   0  0  0  0  0  0  0  0  0  0  0  0
   -2.0577   -3.0213   -2.0818 C   0  0  0  0  0  0  0  0  0  0  0  0
   -1.4926   -1.8476   -1.6199 C   0  0  0  0  0  0  0  0  0  0  0  0
   -2.2197   -0.6679   -1.6545 C   0  0  0  0  0  0  0  0  0  0  0  0
   -1.5919    0.6346   -1.1482 C   0  0  0  0  0  0  0  0  0  0  0  0
   -0.1375    0.6074   -0.8033 C   0  0  0  0  0  0  0  0  0  0  0  0
    1.6186    1.5044    0.6829 C   0  0  1  0  0  0  0  0  0  0  0  0
    1.9337    2.9901    0.6225 C   0  0  0  0  0  0  0  0  0  0  0  0
    1.9880    0.8911    2.0029 C   0  0  0  0  0  0  0  0  0  0  0  0
    3.6947    0.7435    3.6034 C   0  0  0  0  0  0  0  0  0  0  0  0
    5.1459    1.0175    3.9958 C   0  0  0  0  0  0  0  0  0  0  0  0
    5.7775    2.3732    4.0515 C   0  0  0  0  0  0  0  0  0  0  0  0
    6.1944    1.3999    2.9941 C   0  0  0  0  0  0  0  0  0  0  0  0
   -3.5115   -0.6663   -2.1458 C   0  0  0  0  0  0  0  0  0  0  0  0
   -5.6952   -3.2068   -3.5818 O   0  0  0  0  0  0  0  0  0  0  0  0
   -6.2228   -1.0530   -3.2158 O   0  0  0  0  0  0  0  0  0  0  0  0
    0.7126    0.0641   -1.4831 O   0  0  0  0  0  0  0  0  0  0  0  0
    3.3275    1.2346    2.3321 O   0  0  0  0  0  0  0  0  0  0  0  0
   -2.3079    1.1015   -0.0772 F   0  0  0  0  0  0  0  0  0  0  0  0
   -1.8142    1.5713   -2.1404 F   0  0  0  0  0  0  0  0  0  0  0  0
    0.2061    1.2291    0.3283 N   0  0  0  0  0  0  0  0  0  0  0  0
   -6.7161   -3.7858   -5.2717 H   0  0  0  0  0  0  0  0  0  0  0  0
   -7.4712   -2.5083   -4.3496 H   0  0  0  0  0  0  0  0  0  0  0  0
   -7.5127   -4.1533   -3.7608 H   0  0  0  0  0  0  0  0  0  0  0  0
   -3.7800   -3.9038   -2.9184 H   0  0  0  0  0  0  0  0  0  0  0  0
   -1.5108   -3.9056   -2.0596 H   0  0  0  0  0  0  0  0  0  0  0  0
   -0.5219   -1.8495   -1.2465 H   0  0  0  0  0  0  0  0  0  0  0  0
   -0.5003    1.5131    0.9453 H   0  0  0  0  0  0  0  0  0  0  0  0
    2.2282    1.0302   -0.0577 H   0  0  0  0  0  0  0  0  0  0  0  0
    1.4370    3.4935    1.4255 H   0  0  0  0  0  0  0  0  0  0  0  0
    1.5955    3.3885   -0.3112 H   0  0  0  0  0  0  0  0  0  0  0  0
    2.9902    3.1343    0.7106 H   0  0  0  0  0  0  0  0  0  0  0  0
    1.8996   -0.1732    1.9377 H   0  0  0  0  0  0  0  0  0  0  0  0
    1.3298    1.2584    2.7623 H   0  0  0  0  0  0  0  0  0  0  0  0
    3.5418   -0.3155    3.6090 H   0  0  0  0  0  0  0  0  0  0  0  0
    3.0597    1.2000    4.3336 H   0  0  0  0  0  0  0  0  0  0  0  0
    5.5053    0.3505    4.7514 H   0  0  0  0  0  0  0  0  0  0  0  0
    6.4493    2.6176    4.8477 H   0  0  0  0  0  0  0  0  0  0  0  0
    5.2082    3.2394    3.7861 H   0  0  0  0  0  0  0  0  0  0  0  0
    5.9223    1.5699    1.9733 H   0  0  0  0  0  0  0  0  0  0  0  0
    7.1634    0.9480    3.0349 H   0  0  0  0  0  0  0  0  0  0  0  0
   -4.0584    0.2180   -2.1680 H   0  0  0  0  0  0  0  0  0  0  0  0
  1 18  1  0  0  0  0
  1 25  1  0  0  0  0
  1 26  1  0  0  0  0
  1 27  1  0  0  0  0
  2 18  1  0  0  0  0
  2  3  1  0  0  0  0
  2 19  2  0  0  0  0
  3 17  1  0  0  0  0
  3  4  2  0  0  0  0
  4  5  1  0  0  0  0
  4 28  1  0  0  0  0
  5 29  1  0  0  0  0
  5  6  2  0  0  0  0
  6  7  1  0  0  0  0
  6 30  1  0  0  0  0
  7  8  1  0  0  0  0
  7 17  2  0  0  0  0
  8 22  1  0  0  0  0
  8 23  1  0  0  0  0
  8  9  1  0  0  0  0
  9 24  1  0  0  0  0
  9 20  2  0  0  0  0
 10 24  1  0  0  0  0
 10 11  1  0  0  0  0
 10 12  1  0  0  0  0
 10 32  1  6  0  0  0
 11 33  1  0  0  0  0
 11 34  1  0  0  0  0
 11 35  1  0  0  0  0
 12 21  1  0  0  0  0
 12 36  1  0  0  0  0
 12 37  1  0  0  0  0
 13 21  1  0  0  0  0
 13 14  1  0  0  0  0
 13 38  1  0  0  0  0
 13 39  1  0  0  0  0
 14 15  1  0  0  0  0
 14 16  1  0  0  0  0
 14 40  1  0  0  0  0
 15 16  1  0  0  0  0
 15 41  1  0  0  0  0
 15 42  1  0  0  0  0
 16 43  1  0  0  0  0
 16 44  1  0  0  0  0
 17 45  1  0  0  0  0
 24 31  1  0  0  0  0
M  END
>  <score>
0.4313846230506897

$$$$
PV-004113578475
 OpenBabel08202115463D

 55 56  0  0  0  0  0  0  0  0999 V2000
   -3.2114   -4.6091   -1.5322 C   0  0  0  0  0  0  0  0  0  0  0  0
   -4.7650   -3.1744   -2.6291 C   0  0  0  0  0  0  0  0  0  0  0  0
   -5.3737   -1.7609   -2.5728 C   0  0  0  0  0  0  0  0  0  0  0  0
   -4.3823   -0.6447   -2.8823 C   0  0  0  0  0  0  0  0  0  0  0  0
   -3.1779    1.2966   -1.9947 C   0  0  0  0  0  0  0  0  0  0  0  0
   -1.8953    0.9530   -1.2793 C   0  0  0  0  0  0  0  0  0  0  0  0
   -1.0966    1.9622   -0.7640 C   0  0  0  0  0  0  0  0  0  0  0  0
    0.0812    1.6468   -0.1132 C   0  0  0  0  0  0  0  0  0  0  0  0
    0.9548    2.7461    0.4434 C   0  0  0  0  0  0  0  0  0  0  0  0
    2.8765    1.9676    1.7523 C   0  0  0  0  0  0  0  0  0  0  0  0
    4.3387    1.6102    1.7315 C   0  0  0  0  0  0  0  0  0  0  0  0
    4.8572    1.1450    3.0825 C   0  0  0  0  0  0  0  0  0  0  0  0
    6.3508    0.7724    3.0675 C   0  0  0  0  0  0  0  0  0  0  0  0
    6.8272    0.2508    4.4349 C   0  0  0  0  0  0  0  0  0  0  0  0
    7.2279    1.9243    2.5468 C   0  0  0  0  0  0  0  0  0  0  0  0
    0.4612    0.3214    0.0290 C   0  0  0  0  0  0  0  0  0  0  0  0
   -0.3351   -0.6846   -0.4847 C   0  0  0  0  0  0  0  0  0  0  0  0
   -1.5164   -0.3686   -1.1375 C   0  0  0  0  0  0  0  0  0  0  0  0
   -6.4368   -1.4938   -1.5542 C   0  0  0  0  0  0  0  0  0  0  0  0
   -6.7998   -1.6187   -3.0039 C   0  0  0  0  0  0  0  0  0  0  0  0
   -3.7399   -3.2934   -1.6515 O   0  0  0  0  0  0  0  0  0  0  0  0
   -3.8220   -0.5774   -3.9639 O   0  0  0  0  0  0  0  0  0  0  0  0
    2.2265    1.9149    2.7834 O   0  0  0  0  0  0  0  0  0  0  0  0
   -4.1755    0.2417   -1.8956 N   0  0  0  0  0  0  0  0  0  0  0  0
    2.3533    2.3398    0.5807 N   0  0  0  0  0  0  0  0  0  0  0  0
    6.4921   -0.2780    2.1689 F   0  0  0  0  0  0  0  0  0  0  0  0
   -2.7620   -4.8989   -2.4590 H   0  0  0  0  0  0  0  0  0  0  0  0
   -4.0009   -5.2898   -1.2907 H   0  0  0  0  0  0  0  0  0  0  0  0
   -2.4739   -4.6281   -0.7572 H   0  0  0  0  0  0  0  0  0  0  0  0
   -5.5284   -3.8983   -2.4339 H   0  0  0  0  0  0  0  0  0  0  0  0
   -4.3512   -3.3450   -3.6010 H   0  0  0  0  0  0  0  0  0  0  0  0
   -4.7150    0.1761   -1.0801 H   0  0  0  0  0  0  0  0  0  0  0  0
   -3.5806    2.1901   -1.5653 H   0  0  0  0  0  0  0  0  0  0  0  0
   -2.9588    1.4645   -3.0285 H   0  0  0  0  0  0  0  0  0  0  0  0
   -1.3837    2.9564   -0.8672 H   0  0  0  0  0  0  0  0  0  0  0  0
    0.5828    3.0240    1.4073 H   0  0  0  0  0  0  0  0  0  0  0  0
    0.9061    3.5884   -0.2147 H   0  0  0  0  0  0  0  0  0  0  0  0
    2.9263    2.3407   -0.2143 H   0  0  0  0  0  0  0  0  0  0  0  0
    4.8959    2.4730    1.4315 H   0  0  0  0  0  0  0  0  0  0  0  0
    4.4870    0.8243    1.0207 H   0  0  0  0  0  0  0  0  0  0  0  0
    4.2960    0.2852    3.3835 H   0  0  0  0  0  0  0  0  0  0  0  0
    4.7112    1.9330    3.7915 H   0  0  0  0  0  0  0  0  0  0  0  0
    7.8389   -0.0884    4.3550 H   0  0  0  0  0  0  0  0  0  0  0  0
    6.2025   -0.5609    4.7441 H   0  0  0  0  0  0  0  0  0  0  0  0
    6.7716    1.0392    5.1562 H   0  0  0  0  0  0  0  0  0  0  0  0
    6.8803    2.2301    1.5822 H   0  0  0  0  0  0  0  0  0  0  0  0
    8.2428    1.5936    2.4717 H   0  0  0  0  0  0  0  0  0  0  0  0
    7.1707    2.7503    3.2246 H   0  0  0  0  0  0  0  0  0  0  0  0
    1.3455    0.0840    0.5223 H   0  0  0  0  0  0  0  0  0  0  0  0
   -0.0480   -1.6789   -0.3816 H   0  0  0  0  0  0  0  0  0  0  0  0
   -2.1176   -1.1259   -1.5205 H   0  0  0  0  0  0  0  0  0  0  0  0
   -6.4868   -0.5408   -1.0704 H   0  0  0  0  0  0  0  0  0  0  0  0
   -6.7207   -2.2603   -0.8637 H   0  0  0  0  0  0  0  0  0  0  0  0
   -7.3427   -2.4743   -3.3477 H   0  0  0  0  0  0  0  0  0  0  0  0
   -7.1087   -0.7548   -3.5544 H   0  0  0  0  0  0  0  0  0  0  0  0
  1 21  1  0  0  0  0
  1 27  1  0  0  0  0
  1 28  1  0  0  0  0
  1 29  1  0  0  0  0
  2 21  1  0  0  0  0
  2  3  1  0  0  0  0
  2 30  1  0  0  0  0
  2 31  1  0  0  0  0
  3  4  1  0  0  0  0
  3 19  1  0  0  0  0
  3 20  1  0  0  0  0
  4 24  1  0  0  0  0
  4 22  2  0  0  0  0
  5 24  1  0  0  0  0
  5  6  1  0  0  0  0
  5 33  1  0  0  0  0
  5 34  1  0  0  0  0
  6 18  1  0  0  0  0
  6  7  2  0  0  0  0
  7  8  1  0  0  0  0
  7 35  1  0  0  0  0
  8  9  1  0  0  0  0
  8 16  2  0  0  0  0
  9 25  1  0  0  0  0
  9 36  1  0  0  0  0
  9 37  1  0  0  0  0
 10 25  1  0  0  0  0
 10 11  1  0  0  0  0
 10 23  2  0  0  0  0
 11 12  1  0  0  0  0
 11 39  1  0  0  0  0
 11 40  1  0  0  0  0
 12 13  1  0  0  0  0
 12 41  1  0  0  0  0
 12 42  1  0  0  0  0
 13 14  1  0  0  0  0
 13 15  1  0  0  0  0
 13 26  1  0  0  0  0
 14 43  1  0  0  0  0
 14 44  1  0  0  0  0
 14 45  1  0  0  0  0
 15 46  1  0  0  0  0
 15 47  1  0  0  0  0
 15 48  1  0  0  0  0
 16 17  1  0  0  0  0
 16 49  1  0  0  0  0
 17 50  1  0  0  0  0
 17 18  2  0  0  0  0
 18 51  1  0  0  0  0
 19 20  1  0  0  0  0
 19 52  1  0  0  0  0
 19 53  1  0  0  0  0
 20 54  1  0  0  0  0
 20 55  1  0  0  0  0
 24 32  1  0  0  0  0
 25 38  1  0  0  0  0
M  END
>  <score>
0.43142217397689819

$$$$
Z4279367751
 OpenBabel08202115463D

 43 46  0  0  0  0  0  0  0  0999 V2000
    7.4216    0.3013    3.0615 C   0  0  0  0  0  0  0  0  0  0  0  0
    6.1546    1.0251    2.6715 C   0  0  0  0  0  0  0  0  0  0  0  0
    4.9427    0.5007    2.2894 C   0  0  0  0  0  0  0  0  0  0  0  0
    2.8227    1.5441    1.4670 C   0  0  0  0  0  0  0  0  0  0  0  0
    2.5099    2.1678    0.2739 C   0  0  0  0  0  0  0  0  0  0  0  0
    1.2034    2.1614   -0.1895 C   0  0  0  0  0  0  0  0  0  0  0  0
    0.2128    1.5361    0.5441 C   0  0  0  0  0  0  0  0  0  0  0  0
   -2.8216   -0.4609   -1.4261 C   0  0  1  0  0  0  0  0  0  0  0  0
   -2.6641   -1.5503   -2.5184 C   0  0  0  0  0  0  0  0  0  0  0  0
   -3.7961   -2.3370   -1.8103 C   0  0  1  0  0  0  0  0  0  0  0  0
   -5.9474   -3.0664   -2.9364 C   0  0  0  0  0  0  0  0  0  0  0  0
   -6.9598   -2.3403   -3.5126 C   0  0  0  0  0  0  0  0  0  0  0  0
   -3.5417   -1.4975   -0.5371 C   0  0  0  0  0  0  0  0  0  0  0  0
    0.5269    0.9107    1.7406 C   0  0  0  0  0  0  0  0  0  0  0  0
    1.8294    0.9170    2.2028 C   0  0  0  0  0  0  0  0  0  0  0  0
    6.0200    2.4120    2.5206 C   0  0  0  0  0  0  0  0  0  0  0  0
    4.1568    1.5458    1.9373 N   0  0  0  0  0  0  0  0  0  0  0  0
   -1.5516    0.0314   -0.8746 N   0  0  0  0  0  0  0  0  0  0  0  0
   -5.1191   -2.1498   -2.4002 N   0  0  0  0  0  0  0  0  0  0  0  0
   -6.6938   -1.0173   -3.3027 N   0  0  0  0  0  0  0  0  0  0  0  0
   -5.5775   -0.9020   -2.6296 N   0  0  0  0  0  0  0  0  0  0  0  0
    4.8003    2.7329    2.0790 N   0  0  0  0  0  0  0  0  0  0  0  0
   -1.4235    1.4320   -0.0985 S   0  0  0  0  0  0  0  0  0  0  0  0
   -1.5716    2.4611   -1.0803 O   0  0  0  0  0  0  0  0  0  0  0  0
   -2.3239    1.3681    1.0105 O   0  0  0  0  0  0  0  0  0  0  0  0
    2.1335    0.3138    3.3680 F   0  0  0  0  0  0  0  0  0  0  0  0
    7.7681    0.6705    4.0041 H   0  0  0  0  0  0  0  0  0  0  0  0
    8.1711    0.4679    2.3162 H   0  0  0  0  0  0  0  0  0  0  0  0
    7.2233   -0.7472    3.1404 H   0  0  0  0  0  0  0  0  0  0  0  0
    4.6799   -0.5054    2.2737 H   0  0  0  0  0  0  0  0  0  0  0  0
    3.2545    2.6418   -0.2761 H   0  0  0  0  0  0  0  0  0  0  0  0
    0.9686    2.6272   -1.0892 H   0  0  0  0  0  0  0  0  0  0  0  0
   -0.7480   -0.5185   -0.9850 H   0  0  0  0  0  0  0  0  0  0  0  0
   -3.4307    0.3695   -1.7165 H   0  0  0  0  0  0  0  0  0  0  0  0
   -1.7143   -2.0431   -2.5219 H   0  0  0  0  0  0  0  0  0  0  0  0
   -2.9011   -1.2244   -3.5096 H   0  0  0  0  0  0  0  0  0  0  0  0
   -3.6010   -3.3827   -1.6952 H   0  0  0  0  0  0  0  0  0  0  0  0
   -5.8426   -4.1009   -2.9180 H   0  0  0  0  0  0  0  0  0  0  0  0
   -7.7818   -2.7280   -4.0182 H   0  0  0  0  0  0  0  0  0  0  0  0
   -4.4282   -1.1341   -0.0606 H   0  0  0  0  0  0  0  0  0  0  0  0
   -2.9146   -1.9714    0.1890 H   0  0  0  0  0  0  0  0  0  0  0  0
   -0.2177    0.4367    2.2906 H   0  0  0  0  0  0  0  0  0  0  0  0
    6.7712    3.1013    2.7256 H   0  0  0  0  0  0  0  0  0  0  0  0
  1  2  1  0  0  0  0
  1 27  1  0  0  0  0
  1 28  1  0  0  0  0
  1 29  1  0  0  0  0
  2 16  1  0  0  0  0
  2  3  2  0  0  0  0
  3 17  1  0  0  0  0
  3 30  1  0  0  0  0
  4 17  1  0  0  0  0
  4 15  1  0  0  0  0
  4  5  2  0  0  0  0
  5  6  1  0  0  0  0
  5 31  1  0  0  0  0
  6 32  1  0  0  0  0
  6  7  2  0  0  0  0
  7 14  1  0  0  0  0
  8 18  1  0  0  0  0
  8  9  1  0  0  0  0
  8 13  1  0  0  0  0
  8 34  1  6  0  0  0
  9 10  1  0  0  0  0
  9 35  1  0  0  0  0
  9 36  1  0  0  0  0
 10 19  1  0  0  0  0
 10 13  1  0  0  0  0
 10 37  1  1  0  0  0
 11 19  1  0  0  0  0
 11 38  1  0  0  0  0
 11 12  2  0  0  0  0
 12 20  1  0  0  0  0
 12 39  1  0  0  0  0
 13 40  1  0  0  0  0
 13 41  1  0  0  0  0
 14 42  1  0  0  0  0
 14 15  2  0  0  0  0
 15 26  1  0  0  0  0
 16 43  1  0  0  0  0
 16 22  2  0  0  0  0
 17 22  1  0  0  0  0
 18 33  1  0  0  0  0
 19 21  1  0  0  0  0
 20 21  2  0  0  0  0
 23  7  1  0  0  0  0
 23 18  1  0  0  0  0
 23 24  2  0  0  0  0
 23 25  2  0  0  0  0
M  END
>  <score>
0.431438148021698

$$$$
PV-003697453365
 OpenBabel08202115463D

 55 58  0  0  0  0  0  0  0  0999 V2000
   -8.1412   -3.2453   -3.1811 C   0  0  0  0  0  0  0  0  0  0  0  0
   -6.9044   -2.4638   -2.8056 C   0  0  0  0  0  0  0  0  0  0  0  0
   -6.7785   -1.0814   -2.7871 C   0  0  0  0  0  0  0  0  0  0  0  0
   -4.8138   -1.9483   -2.1560 C   0  0  0  0  0  0  0  0  0  0  0  0
   -3.3875   -1.9510   -1.7072 C   0  0  0  0  0  0  0  0  0  0  0  0
   -1.4434   -0.5649   -1.0581 C   0  0  1  0  0  0  0  0  0  0  0  0
   -0.8868    0.6963   -1.6963 C   0  0  0  0  0  0  0  0  0  0  0  0
    0.5711    0.9924   -1.3377 C   0  0  0  0  0  0  0  0  0  0  0  0
    1.7458    1.4911    0.6952 C   0  0  0  0  0  0  0  0  0  0  0  0
    2.2934    1.0137    2.0136 C   0  0  0  0  0  0  0  0  0  0  0  0
    3.8274    1.0718    2.0848 C   0  0  1  0  0  0  0  0  0  0  0  0
    4.4205    0.7066    3.4555 C   0  0  0  0  0  0  0  0  0  0  0  0
    5.8536    1.2616    3.3733 C   0  0  0  0  0  0  0  0  0  0  0  0
    5.8722    1.9804    2.0242 C   0  0  1  0  0  0  0  0  0  0  0  0
    5.9524    0.8952    0.9408 C   0  0  0  0  0  0  0  0  0  0  0  0
    4.5516    0.2397    1.0108 C   0  0  0  0  0  0  0  0  0  0  0  0
    4.4279    2.4504    1.8702 C   0  0  0  0  0  0  0  0  0  0  0  0
    0.0499   -0.1823    0.9878 C   0  0  0  0  0  0  0  0  0  0  0  0
   -1.3676   -0.3872    0.4487 C   0  0  1  0  0  0  0  0  0  0  0  0
   -5.6705   -3.0013   -2.4111 C   0  0  0  0  0  0  0  0  0  0  0  0
   -5.5097   -0.7835   -2.3910 N   0  0  0  0  0  0  0  0  0  0  0  0
   -2.8369   -0.7602   -1.4691 N   0  0  0  0  0  0  0  0  0  0  0  0
    0.7806    0.7608    0.1101 N   0  0  0  0  0  0  0  0  0  0  0  0
   -2.7770   -2.9985   -1.5721 O   0  0  0  0  0  0  0  0  0  0  0  0
    2.1707    2.5197    0.1708 O   0  0  0  0  0  0  0  0  0  0  0  0
   -2.1506    0.7531    0.8046 O   0  0  0  0  0  0  0  0  0  0  0  0
   -8.7606   -3.3703   -2.3176 H   0  0  0  0  0  0  0  0  0  0  0  0
   -7.8557   -4.2055   -3.5570 H   0  0  0  0  0  0  0  0  0  0  0  0
   -8.6836   -2.7136   -3.9348 H   0  0  0  0  0  0  0  0  0  0  0  0
   -7.5208   -0.3954   -3.0321 H   0  0  0  0  0  0  0  0  0  0  0  0
   -5.1475    0.1213   -2.2888 H   0  0  0  0  0  0  0  0  0  0  0  0
   -3.3996    0.0350   -1.5755 H   0  0  0  0  0  0  0  0  0  0  0  0
   -0.8612   -1.4120   -1.3555 H   0  0  0  0  0  0  0  0  0  0  0  0
   -0.9561    0.5927   -2.7590 H   0  0  0  0  0  0  0  0  0  0  0  0
   -1.4849    1.5247   -1.3785 H   0  0  0  0  0  0  0  0  0  0  0  0
    1.2143    0.3471   -1.8987 H   0  0  0  0  0  0  0  0  0  0  0  0
    0.7957    2.0121   -1.5718 H   0  0  0  0  0  0  0  0  0  0  0  0
    1.9836    0.0006    2.1643 H   0  0  0  0  0  0  0  0  0  0  0  0
    1.8928    1.6291    2.7918 H   0  0  0  0  0  0  0  0  0  0  0  0
    4.4267   -0.3534    3.6014 H   0  0  0  0  0  0  0  0  0  0  0  0
    3.8728    1.1730    4.2477 H   0  0  0  0  0  0  0  0  0  0  0  0
    6.0473    1.9439    4.1744 H   0  0  0  0  0  0  0  0  0  0  0  0
    6.5733    0.4702    3.3963 H   0  0  0  0  0  0  0  0  0  0  0  0
    6.6075    2.7529    1.9377 H   0  0  0  0  0  0  0  0  0  0  0  0
    6.1294    1.3248   -0.0231 H   0  0  0  0  0  0  0  0  0  0  0  0
    6.7218    0.1854    1.1622 H   0  0  0  0  0  0  0  0  0  0  0  0
    4.0487    0.3080    0.0688 H   0  0  0  0  0  0  0  0  0  0  0  0
    4.6227   -0.7868    1.3041 H   0  0  0  0  0  0  0  0  0  0  0  0
    4.2193    2.8518    0.9006 H   0  0  0  0  0  0  0  0  0  0  0  0
    4.1350    3.1560    2.6194 H   0  0  0  0  0  0  0  0  0  0  0  0
    0.5629   -1.1210    1.0077 H   0  0  0  0  0  0  0  0  0  0  0  0
   -0.0000    0.2186    1.9786 H   0  0  0  0  0  0  0  0  0  0  0  0
   -1.7785   -1.2608    0.9102 H   0  0  0  0  0  0  0  0  0  0  0  0
   -1.8123    1.5188    0.3346 H   0  0  0  0  0  0  0  0  0  0  0  0
   -5.4416   -4.0122   -2.3259 H   0  0  0  0  0  0  0  0  0  0  0  0
  1  2  1  0  0  0  0
  1 27  1  0  0  0  0
  1 28  1  0  0  0  0
  1 29  1  0  0  0  0
  2 20  1  0  0  0  0
  2  3  2  0  0  0  0
  3 21  1  0  0  0  0
  3 30  1  0  0  0  0
  4 21  1  0  0  0  0
  4  5  1  0  0  0  0
  4 20  2  0  0  0  0
  5 22  1  0  0  0  0
  5 24  2  0  0  0  0
  6 22  1  0  0  0  0
  6  7  1  0  0  0  0
  6 19  1  0  0  0  0
  6 33  1  6  0  0  0
  7  8  1  0  0  0  0
  7 34  1  0  0  0  0
  7 35  1  0  0  0  0
  8 23  1  0  0  0  0
  8 36  1  0  0  0  0
  8 37  1  0  0  0  0
  9 23  1  0  0  0  0
  9 10  1  0  0  0  0
  9 25  2  0  0  0  0
 10 38  1  0  0  0  0
 10 39  1  0  0  0  0
 11 10  1  6  0  0  0
 11 12  1  0  0  0  0
 11 16  1  0  0  0  0
 11 17  1  0  0  0  0
 12 13  1  0  0  0  0
 12 40  1  0  0  0  0
 12 41  1  0  0  0  0
 13 14  1  0  0  0  0
 13 42  1  0  0  0  0
 13 43  1  0  0  0  0
 14 15  1  0  0  0  0
 14 17  1  0  0  0  0
 14 44  1  6  0  0  0
 15 16  1  0  0  0  0
 15 45  1  0  0  0  0
 15 46  1  0  0  0  0
 16 47  1  0  0  0  0
 16 48  1  0  0  0  0
 17 49  1  0  0  0  0
 17 50  1  0  0  0  0
 18 23  1  0  0  0  0
 18 19  1  0  0  0  0
 18 51  1  0  0  0  0
 18 52  1  0  0  0  0
 19 26  1  0  0  0  0
 19 53  1  1  0  0  0
 20 55  1  0  0  0  0
 21 31  1  0  0  0  0
 22 32  1  0  0  0  0
 26 54  1  0  0  0  0
M  END
>  <score>
0.43155449628829956

$$$$
Z4107117029
 OpenBabel08202115463D

 54 55  0  0  0  0  0  0  0  0999 V2000
   -6.3806   -2.3805   -0.8192 C   0  0  0  0  0  0  0  0  0  0  0  0
   -5.7727   -2.8056   -2.1460 C   0  0  0  0  0  0  0  0  0  0  0  0
   -6.2354   -1.9425   -3.3084 C   0  0  0  0  0  0  0  0  0  0  0  0
   -6.0432   -4.2759   -2.4205 C   0  0  0  0  0  0  0  0  0  0  0  0
   -3.7581   -1.5773   -1.8919 C   0  0  0  0  0  0  0  0  0  0  0  0
   -1.5743   -0.5417   -1.6984 C   0  0  0  0  0  0  0  0  0  0  0  0
   -1.3196   -0.1960   -0.2492 C   0  0  0  0  0  0  0  0  0  0  0  0
   -0.4348    0.9995   -0.0169 C   0  0  0  0  0  0  0  0  0  0  0  0
   -0.9709    2.2734   -0.0054 C   0  0  0  0  0  0  0  0  0  0  0  0
   -0.1680    3.3607    0.3022 C   0  0  0  0  0  0  0  0  0  0  0  0
    1.1699    3.1714    0.5922 C   0  0  0  0  0  0  0  0  0  0  0  0
    1.7079    1.8939    0.5807 C   0  0  0  0  0  0  0  0  0  0  0  0
    3.6776    0.5394    1.3053 C   0  0  0  0  0  0  0  0  0  0  0  0
    5.1265    0.6337    1.7909 C   0  0  0  0  0  0  0  0  0  0  0  0
    6.1783    0.2279    0.7389 C   0  0  0  0  0  0  0  0  0  0  0  0
    5.2691   -0.3423    3.0019 C   0  0  0  0  0  0  0  0  0  0  0  0
    5.3793    2.0135    2.3250 C   0  0  0  0  0  0  0  0  0  0  0  0
    6.3058    2.8856    1.8406 C   0  0  0  0  0  0  0  0  0  0  0  0
    4.9845    3.6693    3.7107 C   0  0  0  0  0  0  0  0  0  0  0  0
    0.9072    0.8099    0.2740 C   0  0  0  0  0  0  0  0  0  0  0  0
   -4.3396   -2.7774   -2.0573 O   0  0  0  0  0  0  0  0  0  0  0  0
   -4.3511   -0.5158   -1.7920 O   0  0  0  0  0  0  0  0  0  0  0  0
    3.1097   -0.5487    1.2215 O   0  0  0  0  0  0  0  0  0  0  0  0
   -2.4239   -1.7132   -1.8518 N   0  0  0  0  0  0  0  0  0  0  0  0
    3.0415    1.6886    0.9716 N   0  0  0  0  0  0  0  0  0  0  0  0
    4.6326    2.4575    3.3844 N   0  0  0  0  0  0  0  0  0  0  0  0
    6.2526    4.3404    2.7468 S   0  0  0  0  0  0  0  0  0  0  0  0
   -7.4411   -2.5192   -0.8515 H   0  0  0  0  0  0  0  0  0  0  0  0
   -6.1614   -1.3485   -0.6411 H   0  0  0  0  0  0  0  0  0  0  0  0
   -5.9673   -2.9747   -0.0312 H   0  0  0  0  0  0  0  0  0  0  0  0
   -6.0287   -0.9146   -3.0946 H   0  0  0  0  0  0  0  0  0  0  0  0
   -7.2878   -2.0721   -3.4518 H   0  0  0  0  0  0  0  0  0  0  0  0
   -5.7154   -2.2332   -4.1973 H   0  0  0  0  0  0  0  0  0  0  0  0
   -5.5890   -4.5555   -3.3481 H   0  0  0  0  0  0  0  0  0  0  0  0
   -7.0991   -4.4395   -2.4771 H   0  0  0  0  0  0  0  0  0  0  0  0
   -5.6319   -4.8677   -1.6296 H   0  0  0  0  0  0  0  0  0  0  0  0
   -2.0206   -2.6033   -1.9260 H   0  0  0  0  0  0  0  0  0  0  0  0
   -2.0509    0.2917   -2.1710 H   0  0  0  0  0  0  0  0  0  0  0  0
   -0.6358   -0.7339   -2.1751 H   0  0  0  0  0  0  0  0  0  0  0  0
   -0.8594   -1.0425    0.2161 H   0  0  0  0  0  0  0  0  0  0  0  0
   -2.2641   -0.0028    0.2150 H   0  0  0  0  0  0  0  0  0  0  0  0
   -1.9768    2.4162   -0.2276 H   0  0  0  0  0  0  0  0  0  0  0  0
   -0.5724    4.3188    0.3148 H   0  0  0  0  0  0  0  0  0  0  0  0
    1.7733    3.9876    0.8191 H   0  0  0  0  0  0  0  0  0  0  0  0
    3.5943    2.4969    1.0084 H   0  0  0  0  0  0  0  0  0  0  0  0
    6.0354    0.8058   -0.1502 H   0  0  0  0  0  0  0  0  0  0  0  0
    6.0704   -0.8116    0.5096 H   0  0  0  0  0  0  0  0  0  0  0  0
    7.1589    0.4081    1.1274 H   0  0  0  0  0  0  0  0  0  0  0  0
    5.1011   -1.3465    2.6730 H   0  0  0  0  0  0  0  0  0  0  0  0
    4.5494   -0.0876    3.7516 H   0  0  0  0  0  0  0  0  0  0  0  0
    6.2546   -0.2614    3.4108 H   0  0  0  0  0  0  0  0  0  0  0  0
    6.9472    2.6982    1.0437 H   0  0  0  0  0  0  0  0  0  0  0  0
    4.5370    4.1919    4.4906 H   0  0  0  0  0  0  0  0  0  0  0  0
    1.3116   -0.1482    0.2614 H   0  0  0  0  0  0  0  0  0  0  0  0
  1  2  1  0  0  0  0
  1 28  1  0  0  0  0
  1 29  1  0  0  0  0
  1 30  1  0  0  0  0
  2  3  1  0  0  0  0
  2  4  1  0  0  0  0
  2 21  1  0  0  0  0
  3 31  1  0  0  0  0
  3 32  1  0  0  0  0
  3 33  1  0  0  0  0
  4 34  1  0  0  0  0
  4 35  1  0  0  0  0
  4 36  1  0  0  0  0
  5 21  1  0  0  0  0
  5 24  1  0  0  0  0
  5 22  2  0  0  0  0
  6 24  1  0  0  0  0
  6  7  1  0  0  0  0
  6 38  1  0  0  0  0
  6 39  1  0  0  0  0
  7  8  1  0  0  0  0
  7 40  1  0  0  0  0
  7 41  1  0  0  0  0
  8 20  1  0  0  0  0
  8  9  2  0  0  0  0
  9 10  1  0  0  0  0
  9 42  1  0  0  0  0
 10 43  1  0  0  0  0
 10 11  2  0  0  0  0
 11 12  1  0  0  0  0
 11 44  1  0  0  0  0
 12 25  1  0  0  0  0
 12 20  2  0  0  0  0
 13 25  1  0  0  0  0
 13 14  1  0  0  0  0
 13 23  2  0  0  0  0
 14 15  1  0  0  0  0
 14 16  1  0  0  0  0
 14 17  1  0  0  0  0
 15 46  1  0  0  0  0
 15 47  1  0  0  0  0
 15 48  1  0  0  0  0
 16 49  1  0  0  0  0
 16 50  1  0  0  0  0
 16 51  1  0  0  0  0
 17 26  1  0  0  0  0
 17 18  2  0  0  0  0
 18 27  1  0  0  0  0
 18 52  1  0  0  0  0
 19 27  1  0  0  0  0
 19 53  1  0  0  0  0
 19 26  2  0  0  0  0
 20 54  1  0  0  0  0
 24 37  1  0  0  0  0
 25 45  1  0  0  0  0
M  END
>  <score>
0.43174248933792114

$$$$
PV-003442925873
 OpenBabel08202115463D

 48 49  0  0  0  0  0  0  0  0999 V2000
   -8.1433   -3.9615   -3.5629 C   0  0  0  0  0  0  0  0  0  0  0  0
   -6.9515   -3.4577   -2.8003 C   0  0  0  0  0  0  0  0  0  0  0  0
   -5.0731   -2.2713   -1.9708 C   0  0  0  0  0  0  0  0  0  0  0  0
   -4.0023   -1.2893   -1.6178 C   0  0  0  0  0  0  0  0  0  0  0  0
   -1.8933   -0.9609   -0.3672 C   0  0  0  0  0  0  0  0  0  0  0  0
   -0.8267   -0.5776   -1.3629 C   0  0  0  0  0  0  0  0  0  0  0  0
    1.4734   -0.7458   -0.4096 C   0  0  0  0  0  0  0  0  0  0  0  0
    0.3492    1.4224   -0.6079 C   0  0  0  0  0  0  0  0  0  0  0  0
    1.6207    1.9994   -0.0168 C   0  0  2  0  0  0  0  0  0  0  0  0
    1.8313    1.5518    1.4244 C   0  0  0  0  0  0  0  0  0  0  0  0
    3.1849    2.0560    1.8892 C   0  0  0  0  0  0  0  0  0  0  0  0
    3.4224    1.6150    3.3392 C   0  0  0  0  0  0  0  0  0  0  0  0
    4.8549    1.9106    3.7549 C   0  0  0  0  0  0  0  0  0  0  0  0
    5.6486    1.7956    1.5460 C   0  0  0  0  0  0  0  0  0  0  0  0
    4.2806    1.4783    0.9868 C   0  0  0  0  0  0  0  0  0  0  0  0
   -6.2067   -4.1962   -2.0335 N   0  0  0  0  0  0  0  0  0  0  0  0
   -5.1071   -3.4966   -1.5442 N   0  0  0  0  0  0  0  0  0  0  0  0
   -2.9460   -1.7713   -0.9612 N   0  0  0  0  0  0  0  0  0  0  0  0
    0.3392    0.0915   -0.7829 N   0  0  0  0  0  0  0  0  0  0  0  0
   -4.1080   -0.1129   -1.9234 O   0  0  0  0  0  0  0  0  0  0  0  0
   -0.6028    2.1440   -0.9023 O   0  0  0  0  0  0  0  0  0  0  0  0
    1.5889    3.4078   -0.1417 O   0  0  0  0  0  0  0  0  0  0  0  0
    5.7918    1.2955    2.8711 O   0  0  0  0  0  0  0  0  0  0  0  0
   -6.3828   -1.8357   -3.0025 S   0  0  0  0  0  0  0  0  0  0  0  0
   -8.2507   -5.0141   -3.4033 H   0  0  0  0  0  0  0  0  0  0  0  0
   -8.0048   -3.7716   -4.6068 H   0  0  0  0  0  0  0  0  0  0  0  0
   -9.0236   -3.4577   -3.2220 H   0  0  0  0  0  0  0  0  0  0  0  0
   -2.8734   -2.7446   -0.8720 H   0  0  0  0  0  0  0  0  0  0  0  0
   -1.4383   -1.5172    0.4255 H   0  0  0  0  0  0  0  0  0  0  0  0
   -2.3301   -0.0677    0.0283 H   0  0  0  0  0  0  0  0  0  0  0  0
   -1.2647    0.0813   -2.0834 H   0  0  0  0  0  0  0  0  0  0  0  0
   -0.4910   -1.4686   -1.8512 H   0  0  0  0  0  0  0  0  0  0  0  0
    1.2997   -1.1728    0.5560 H   0  0  0  0  0  0  0  0  0  0  0  0
    2.3620   -0.1505   -0.3814 H   0  0  0  0  0  0  0  0  0  0  0  0
    1.5907   -1.5288   -1.1295 H   0  0  0  0  0  0  0  0  0  0  0  0
    2.4423    1.6204   -0.5879 H   0  0  0  0  0  0  0  0  0  0  0  0
    1.2195    3.7921    0.6566 H   0  0  0  0  0  0  0  0  0  0  0  0
    1.8057    0.4835    1.4783 H   0  0  0  0  0  0  0  0  0  0  0  0
    1.0612    1.9594    2.0455 H   0  0  0  0  0  0  0  0  0  0  0  0
    3.2061    3.1243    1.8346 H   0  0  0  0  0  0  0  0  0  0  0  0
    3.2412    0.5636    3.4221 H   0  0  0  0  0  0  0  0  0  0  0  0
    2.7520    2.1448    3.9831 H   0  0  0  0  0  0  0  0  0  0  0  0
    5.0091    2.9695    3.7433 H   0  0  0  0  0  0  0  0  0  0  0  0
    5.0139    1.5375    4.7451 H   0  0  0  0  0  0  0  0  0  0  0  0
    5.7833    2.8571    1.5572 H   0  0  0  0  0  0  0  0  0  0  0  0
    6.3932    1.3477    0.9217 H   0  0  0  0  0  0  0  0  0  0  0  0
    4.1629    0.4165    0.9257 H   0  0  0  0  0  0  0  0  0  0  0  0
    4.1925    1.9042    0.0092 H   0  0  0  0  0  0  0  0  0  0  0  0
  1  2  1  0  0  0  0
  1 25  1  0  0  0  0
  1 26  1  0  0  0  0
  1 27  1  0  0  0  0
  2 24  1  0  0  0  0
  2 16  2  0  0  0  0
  3  4  1  0  0  0  0
  3 24  1  0  0  0  0
  3 17  2  0  0  0  0
  4 18  1  0  0  0  0
  4 20  2  0  0  0  0
  5 18  1  0  0  0  0
  5  6  1  0  0  0  0
  5 29  1  0  0  0  0
  5 30  1  0  0  0  0
  6 19  1  0  0  0  0
  6 31  1  0  0  0  0
  6 32  1  0  0  0  0
  7 19  1  0  0  0  0
  7 33  1  0  0  0  0
  7 34  1  0  0  0  0
  7 35  1  0  0  0  0
  8 19  1  0  0  0  0
  8  9  1  0  0  0  0
  8 21  2  0  0  0  0
  9 22  1  0  0  0  0
  9 10  1  0  0  0  0
  9 36  1  6  0  0  0
 10 11  1  0  0  0  0
 10 38  1  0  0  0  0
 10 39  1  0  0  0  0
 11 12  1  0  0  0  0
 11 15  1  0  0  0  0
 11 40  1  0  0  0  0
 12 13  1  0  0  0  0
 12 41  1  0  0  0  0
 12 42  1  0  0  0  0
 13 23  1  0  0  0  0
 13 43  1  0  0  0  0
 13 44  1  0  0  0  0
 14 23  1  0  0  0  0
 14 15  1  0  0  0  0
 14 45  1  0  0  0  0
 14 46  1  0  0  0  0
 15 47  1  0  0  0  0
 15 48  1  0  0  0  0
 16 17  1  0  0  0  0
 18 28  1  0  0  0  0
 22 37  1  0  0  0  0
M  END
>  <score>
0.43192064762115479

$$$$
PV-002917038786
 OpenBabel08202115463D

 54 55  0  0  0  0  0  0  0  0999 V2000
    2.1805    0.9539   -1.0170 C   0  0  0  0  0  0  0  0  0  0  0  0
    2.0402    1.1675    1.4500 C   0  0  0  0  0  0  0  0  0  0  0  0
    3.5333    1.3351    1.3830 C   0  0  0  0  0  0  0  0  0  0  0  0
    4.2929    0.9286    2.6391 C   0  0  0  0  0  0  0  0  0  0  0  0
    5.8067    1.1436    2.5301 C   0  0  0  0  0  0  0  0  0  0  0  0
    6.5288    0.7426    3.8332 C   0  0  0  0  0  0  0  0  0  0  0  0
    6.1485    2.6097    2.1708 C   0  0  0  0  0  0  0  0  0  0  0  0
    0.0189    0.7461    0.1965 C   0  0  1  0  0  0  0  0  0  0  0  0
   -0.6738    2.0699   -0.1005 C   0  0  0  0  0  0  0  0  0  0  0  0
   -2.1621    1.8535   -0.3021 C   0  0  0  0  0  0  0  0  0  0  0  0
   -2.4251    0.8181   -1.3807 C   0  0  0  0  0  0  0  0  0  0  0  0
   -2.2501   -1.6433   -1.2419 C   0  0  0  0  0  0  0  0  0  0  0  0
   -3.6877   -1.6930   -1.6854 C   0  0  0  0  0  0  0  0  0  0  0  0
   -4.1517   -3.0951   -2.0451 C   0  0  0  0  0  0  0  0  0  0  0  0
   -5.6433   -3.1956   -2.2210 C   0  0  0  0  0  0  0  0  0  0  0  0
   -6.3134   -3.2792   -3.3823 C   0  0  0  0  0  0  0  0  0  0  0  0
   -7.8153   -3.3277   -1.7949 C   0  0  0  0  0  0  0  0  0  0  0  0
   -6.6219   -3.2208   -1.1907 C   0  0  0  0  0  0  0  0  0  0  0  0
   -0.2810   -0.2912   -0.8761 C   0  0  0  0  0  0  0  0  0  0  0  0
    1.4655    0.9678    0.2534 N   0  0  0  0  0  0  0  0  0  0  0  0
   -1.7312   -0.4313   -1.0559 N   0  0  0  0  0  0  0  0  0  0  0  0
    1.4333    1.2147    2.5191 O   0  0  0  0  0  0  0  0  0  0  0  0
   -1.6680   -2.7001   -1.0857 O   0  0  0  0  0  0  0  0  0  0  0  0
   -7.6615   -3.3637   -3.1577 O   0  0  0  0  0  0  0  0  0  0  0  0
    6.3740    0.3851    1.5278 F   0  0  0  0  0  0  0  0  0  0  0  0
    1.6791    1.5902   -1.7160 H   0  0  0  0  0  0  0  0  0  0  0  0
    2.2075   -0.0449   -1.3999 H   0  0  0  0  0  0  0  0  0  0  0  0
    3.1797    1.3062   -0.8675 H   0  0  0  0  0  0  0  0  0  0  0  0
    3.7414    2.3669    1.1909 H   0  0  0  0  0  0  0  0  0  0  0  0
    3.8961    0.7404    0.5709 H   0  0  0  0  0  0  0  0  0  0  0  0
    4.1102   -0.1092    2.8251 H   0  0  0  0  0  0  0  0  0  0  0  0
    3.9260    1.5086    3.4600 H   0  0  0  0  0  0  0  0  0  0  0  0
    6.3727   -0.2989    4.0221 H   0  0  0  0  0  0  0  0  0  0  0  0
    6.1378    1.3152    4.6481 H   0  0  0  0  0  0  0  0  0  0  0  0
    7.5769    0.9335    3.7330 H   0  0  0  0  0  0  0  0  0  0  0  0
    5.6494    2.8809    1.2640 H   0  0  0  0  0  0  0  0  0  0  0  0
    7.2058    2.7070    2.0384 H   0  0  0  0  0  0  0  0  0  0  0  0
    5.8267    3.2548    2.9615 H   0  0  0  0  0  0  0  0  0  0  0  0
   -0.3235    0.3785    1.1413 H   0  0  0  0  0  0  0  0  0  0  0  0
   -0.5229    2.7389    0.7208 H   0  0  0  0  0  0  0  0  0  0  0  0
   -0.2558    2.4951   -0.9889 H   0  0  0  0  0  0  0  0  0  0  0  0
   -2.5934    1.5168    0.6174 H   0  0  0  0  0  0  0  0  0  0  0  0
   -2.6135    2.7798   -0.5903 H   0  0  0  0  0  0  0  0  0  0  0  0
   -3.4769    0.6328   -1.4449 H   0  0  0  0  0  0  0  0  0  0  0  0
   -2.0694    1.1869   -2.3201 H   0  0  0  0  0  0  0  0  0  0  0  0
   -3.8008   -1.0659   -2.5450 H   0  0  0  0  0  0  0  0  0  0  0  0
   -4.3022   -1.3242   -0.8909 H   0  0  0  0  0  0  0  0  0  0  0  0
   -3.8552   -3.7629   -1.2634 H   0  0  0  0  0  0  0  0  0  0  0  0
   -3.6804   -3.3854   -2.9608 H   0  0  0  0  0  0  0  0  0  0  0  0
   -5.8693   -3.2796   -4.3227 H   0  0  0  0  0  0  0  0  0  0  0  0
   -8.7285   -3.3765   -1.2997 H   0  0  0  0  0  0  0  0  0  0  0  0
   -6.4470   -3.1669   -0.1669 H   0  0  0  0  0  0  0  0  0  0  0  0
    0.1309   -1.2337   -0.5810 H   0  0  0  0  0  0  0  0  0  0  0  0
    0.1611    0.0182   -1.8001 H   0  0  0  0  0  0  0  0  0  0  0  0
  1 20  1  0  0  0  0
  1 26  1  0  0  0  0
  1 27  1  0  0  0  0
  1 28  1  0  0  0  0
  2 20  1  0  0  0  0
  2  3  1  0  0  0  0
  2 22  2  0  0  0  0
  3  4  1  0  0  0  0
  3 29  1  0  0  0  0
  3 30  1  0  0  0  0
  4  5  1  0  0  0  0
  4 31  1  0  0  0  0
  4 32  1  0  0  0  0
  5  6  1  0  0  0  0
  5  7  1  0  0  0  0
  5 25  1  0  0  0  0
  6 33  1  0  0  0  0
  6 34  1  0  0  0  0
  6 35  1  0  0  0  0
  7 36  1  0  0  0  0
  7 37  1  0  0  0  0
  7 38  1  0  0  0  0
  8 20  1  0  0  0  0
  8  9  1  0  0  0  0
  8 19  1  0  0  0  0
  8 39  1  1  0  0  0
  9 10  1  0  0  0  0
  9 40  1  0  0  0  0
  9 41  1  0  0  0  0
 10 11  1  0  0  0  0
 10 42  1  0  0  0  0
 10 43  1  0  0  0  0
 11 21  1  0  0  0  0
 11 44  1  0  0  0  0
 11 45  1  0  0  0  0
 12 21  1  0  0  0  0
 12 13  1  0  0  0  0
 12 23  2  0  0  0  0
 13 14  1  0  0  0  0
 13 46  1  0  0  0  0
 13 47  1  0  0  0  0
 14 15  1  0  0  0  0
 14 48  1  0  0  0  0
 14 49  1  0  0  0  0
 15 18  1  0  0  0  0
 15 16  2  0  0  0  0
 16 24  1  0  0  0  0
 16 50  1  0  0  0  0
 17 24  1  0  0  0  0
 17 51  1  0  0  0  0
 17 18  2  0  0  0  0
 18 52  1  0  0  0  0
 19 21  1  0  0  0  0
 19 53  1  0  0  0  0
 19 54  1  0  0  0  0
M  END
>  <score>
0.43193036317825317

$$$$
PV-002126450463
 OpenBabel08202115463D

 47 49  0  0  0  0  0  0  0  0999 V2000
   -8.3098   -0.1870   -3.7745 C   0  0  0  0  0  0  0  0  0  0  0  0
   -6.6493   -1.6513   -2.8958 C   0  0  0  0  0  0  0  0  0  0  0  0
   -6.2712   -2.9456   -2.5573 C   0  0  0  0  0  0  0  0  0  0  0  0
   -5.0257   -3.1934   -2.0180 C   0  0  0  0  0  0  0  0  0  0  0  0
   -4.1818   -2.0990   -1.8322 C   0  0  0  0  0  0  0  0  0  0  0  0
   -2.8657   -1.8734   -1.3286 C   0  0  0  0  0  0  0  0  0  0  0  0
   -2.6144   -0.5440   -1.4365 C   0  0  0  0  0  0  0  0  0  0  0  0
   -1.3986    0.2444   -1.0679 C   0  0  0  0  0  0  0  0  0  0  0  0
    0.9113    0.1834   -0.2673 C   0  0  0  0  0  0  0  0  0  0  0  0
    0.9985    0.3606    1.2398 C   0  0  0  0  0  0  0  0  0  0  0  0
    2.1971    1.1921    1.6109 C   0  0  0  0  0  0  0  0  0  0  0  0
    2.1759    2.5284    1.8706 C   0  0  0  0  0  0  0  0  0  0  0  0
    4.3356    1.4485    2.0335 C   0  0  0  0  0  0  0  0  0  0  0  0
    5.7400    1.0282    2.4856 C   0  0  0  0  0  0  0  0  0  0  0  0
    6.8450    1.7703    1.7529 C   0  0  0  0  0  0  0  0  0  0  0  0
    5.9507   -0.4636    2.2184 C   0  0  0  0  0  0  0  0  0  0  0  0
    5.8757    1.2596    3.9942 C   0  0  0  0  0  0  0  0  0  0  0  0
   -4.6777   -0.8358   -2.2196 C   0  0  0  0  0  0  0  0  0  0  0  0
   -7.8953   -1.5122   -3.4075 O   0  0  0  0  0  0  0  0  0  0  0  0
   -1.4043    1.4786   -1.1228 O   0  0  0  0  0  0  0  0  0  0  0  0
   -0.3280   -0.4562   -0.6833 N   0  0  0  0  0  0  0  0  0  0  0  0
    3.4203    0.5819    1.7022 N   0  0  0  0  0  0  0  0  0  0  0  0
   -3.7082    0.1387   -1.9879 N   0  0  0  0  0  0  0  0  0  0  0  0
   -5.8709   -0.5670   -2.7477 N   0  0  0  0  0  0  0  0  0  0  0  0
    3.7603    3.0639    2.2499 S   0  0  0  0  0  0  0  0  0  0  0  0
   -7.6422    0.2042   -4.5136 H   0  0  0  0  0  0  0  0  0  0  0  0
   -8.2938    0.4436   -2.9103 H   0  0  0  0  0  0  0  0  0  0  0  0
   -9.3022   -0.2216   -4.1731 H   0  0  0  0  0  0  0  0  0  0  0  0
   -6.9325   -3.7333   -2.7117 H   0  0  0  0  0  0  0  0  0  0  0  0
   -4.7286   -4.1563   -1.7607 H   0  0  0  0  0  0  0  0  0  0  0  0
   -2.2190   -2.5941   -0.9493 H   0  0  0  0  0  0  0  0  0  0  0  0
   -0.3790   -1.4349   -0.6813 H   0  0  0  0  0  0  0  0  0  0  0  0
    0.9722    1.1463   -0.7298 H   0  0  0  0  0  0  0  0  0  0  0  0
    1.7337   -0.4204   -0.5897 H   0  0  0  0  0  0  0  0  0  0  0  0
    1.0818   -0.6009    1.7018 H   0  0  0  0  0  0  0  0  0  0  0  0
    0.1119    0.8483    1.5875 H   0  0  0  0  0  0  0  0  0  0  0  0
    1.3292    3.1316    1.8432 H   0  0  0  0  0  0  0  0  0  0  0  0
    7.7939    1.4925    2.1619 H   0  0  0  0  0  0  0  0  0  0  0  0
    6.7025    2.8246    1.8668 H   0  0  0  0  0  0  0  0  0  0  0  0
    6.8166    1.5162    0.7138 H   0  0  0  0  0  0  0  0  0  0  0  0
    6.9020   -0.7648    2.6046 H   0  0  0  0  0  0  0  0  0  0  0  0
    5.9205   -0.6446    1.1642 H   0  0  0  0  0  0  0  0  0  0  0  0
    5.1769   -1.0246    2.6994 H   0  0  0  0  0  0  0  0  0  0  0  0
    5.0934    0.7400    4.5070 H   0  0  0  0  0  0  0  0  0  0  0  0
    5.8039    2.3068    4.2020 H   0  0  0  0  0  0  0  0  0  0  0  0
    6.8245    0.8936    4.3271 H   0  0  0  0  0  0  0  0  0  0  0  0
   -3.7767    1.0988   -2.1718 H   0  0  0  0  0  0  0  0  0  0  0  0
  1 19  1  0  0  0  0
  1 26  1  0  0  0  0
  1 27  1  0  0  0  0
  1 28  1  0  0  0  0
  2 19  1  0  0  0  0
  2 24  1  0  0  0  0
  2  3  2  0  0  0  0
  3  4  1  0  0  0  0
  3 29  1  0  0  0  0
  4 30  1  0  0  0  0
  4  5  2  0  0  0  0
  5  6  1  0  0  0  0
  5 18  1  0  0  0  0
  6 31  1  0  0  0  0
  6  7  2  0  0  0  0
  7  8  1  0  0  0  0
  7 23  1  0  0  0  0
  8 21  1  0  0  0  0
  8 20  2  0  0  0  0
  9 21  1  0  0  0  0
  9 10  1  0  0  0  0
  9 33  1  0  0  0  0
  9 34  1  0  0  0  0
 10 11  1  0  0  0  0
 10 35  1  0  0  0  0
 10 36  1  0  0  0  0
 11 22  1  0  0  0  0
 11 12  2  0  0  0  0
 12 25  1  0  0  0  0
 12 37  1  0  0  0  0
 13 25  1  0  0  0  0
 13 14  1  0  0  0  0
 13 22  2  0  0  0  0
 14 15  1  0  0  0  0
 14 16  1  0  0  0  0
 14 17  1  0  0  0  0
 15 38  1  0  0  0  0
 15 39  1  0  0  0  0
 15 40  1  0  0  0  0
 16 41  1  0  0  0  0
 16 42  1  0  0  0  0
 16 43  1  0  0  0  0
 17 44  1  0  0  0  0
 17 45  1  0  0  0  0
 17 46  1  0  0  0  0
 18 23  1  0  0  0  0
 18 24  2  0  0  0  0
 21 32  1  0  0  0  0
 23 47  1  0  0  0  0
M  END
>  <score>
0.43198090791702271

$$$$
PV-003833834647
 OpenBabel08202115463D

 51 51  0  0  0  0  0  0  0  0999 V2000
   -6.6130   -2.7001   -2.8328 C   0  0  0  0  0  0  0  0  0  0  0  0
   -5.5039   -1.6655   -2.7179 C   0  0  0  0  0  0  0  0  0  0  0  0
   -4.1565   -2.3396   -2.2464 C   0  0  1  0  0  0  0  0  0  0  0  0
   -3.8543   -3.5091   -3.0863 C   0  0  0  0  0  0  0  0  0  0  0  0
   -2.9477   -1.4193   -2.2030 C   0  0  0  0  0  0  0  0  0  0  0  0
   -1.5761    0.1994   -0.9184 C   0  0  2  0  0  0  0  0  0  0  0  0
   -0.3445   -0.6672   -1.1249 C   0  0  0  0  0  0  0  0  0  0  0  0
   -1.5216    1.2925   -1.9470 C   0  0  0  0  0  0  0  0  0  0  0  0
   -1.5751    0.7934    0.4684 C   0  0  0  0  0  0  0  0  0  0  0  0
    0.7705    1.0241    1.1488 C   0  0  0  0  0  0  0  0  0  0  0  0
    1.9387    1.9732    1.3324 C   0  0  0  0  0  0  0  0  0  0  0  0
    5.1764    0.6025    2.3590 C   0  0  0  0  0  0  0  0  0  0  0  0
    6.0994    1.7045    1.8760 C   0  0  0  0  0  0  0  0  0  0  0  0
    5.9321   -0.7176    2.3856 C   0  0  0  0  0  0  0  0  0  0  0  0
    4.5742    0.9333    3.7280 C   0  0  0  0  0  0  0  0  0  0  0  0
    3.3429    1.7146    3.3416 C   0  0  0  0  0  0  0  0  0  0  0  0
   -3.6112   -4.3819   -3.7734 N   0  0  0  0  0  0  0  0  0  0  0  0
   -2.8090   -0.6139   -1.1461 N   0  0  0  0  0  0  0  0  0  0  0  0
   -0.3724    1.5826    0.7403 N   0  0  0  0  0  0  0  0  0  0  0  0
    3.0469    1.4314    2.0660 N   0  0  0  0  0  0  0  0  0  0  0  0
   -2.1240   -1.4179   -3.1141 O   0  0  0  0  0  0  0  0  0  0  0  0
   -2.5923    2.1874   -1.6761 O   0  0  0  0  0  0  0  0  0  0  0  0
    0.8866   -0.1811    1.3671 O   0  0  0  0  0  0  0  0  0  0  0  0
    3.9956    0.5158    1.5543 O   0  0  0  0  0  0  0  0  0  0  0  0
    2.7226    2.4746    4.0669 O   0  0  0  0  0  0  0  0  0  0  0  0
   -6.7783   -3.1539   -1.8780 H   0  0  0  0  0  0  0  0  0  0  0  0
   -6.3281   -3.4510   -3.5398 H   0  0  0  0  0  0  0  0  0  0  0  0
   -7.5127   -2.2231   -3.1613 H   0  0  0  0  0  0  0  0  0  0  0  0
   -5.7915   -0.9205   -2.0058 H   0  0  0  0  0  0  0  0  0  0  0  0
   -5.3516   -1.2071   -3.6726 H   0  0  0  0  0  0  0  0  0  0  0  0
   -4.3238   -2.6886   -1.2488 H   0  0  0  0  0  0  0  0  0  0  0  0
   -3.5413   -0.5544   -0.4975 H   0  0  0  0  0  0  0  0  0  0  0  0
   -0.3658   -1.0896   -2.1078 H   0  0  0  0  0  0  0  0  0  0  0  0
   -0.3362   -1.4534   -0.3992 H   0  0  0  0  0  0  0  0  0  0  0  0
    0.5353   -0.0687   -1.0132 H   0  0  0  0  0  0  0  0  0  0  0  0
   -1.6314    0.8776   -2.9271 H   0  0  0  0  0  0  0  0  0  0  0  0
   -0.5874    1.8100   -1.8809 H   0  0  0  0  0  0  0  0  0  0  0  0
   -3.1161    1.8487   -0.9464 H   0  0  0  0  0  0  0  0  0  0  0  0
   -1.6320   -0.0018    1.1820 H   0  0  0  0  0  0  0  0  0  0  0  0
   -2.4313    1.4269    0.5706 H   0  0  0  0  0  0  0  0  0  0  0  0
   -0.4069    2.5544    0.6186 H   0  0  0  0  0  0  0  0  0  0  0  0
    1.5856    2.8380    1.8542 H   0  0  0  0  0  0  0  0  0  0  0  0
    2.2899    2.2596    0.3631 H   0  0  0  0  0  0  0  0  0  0  0  0
    6.7558    1.9942    2.6698 H   0  0  0  0  0  0  0  0  0  0  0  0
    5.5171    2.5482    1.5692 H   0  0  0  0  0  0  0  0  0  0  0  0
    6.6765    1.3488    1.0481 H   0  0  0  0  0  0  0  0  0  0  0  0
    6.2895   -0.9444    1.4029 H   0  0  0  0  0  0  0  0  0  0  0  0
    5.2770   -1.4967    2.7152 H   0  0  0  0  0  0  0  0  0  0  0  0
    6.7613   -0.6401    3.0573 H   0  0  0  0  0  0  0  0  0  0  0  0
    4.3187    0.0445    4.2663 H   0  0  0  0  0  0  0  0  0  0  0  0
    5.2437    1.5264    4.3152 H   0  0  0  0  0  0  0  0  0  0  0  0
  1  2  1  0  0  0  0
  1 26  1  0  0  0  0
  1 27  1  0  0  0  0
  1 28  1  0  0  0  0
  2  3  1  0  0  0  0
  2 29  1  0  0  0  0
  2 30  1  0  0  0  0
  3  4  1  0  0  0  0
  3  5  1  0  0  0  0
  3 31  1  1  0  0  0
  4 17  3  0  0  0  0
  5 18  1  0  0  0  0
  5 21  2  0  0  0  0
  6 18  1  6  0  0  0
  6  7  1  0  0  0  0
  6  8  1  0  0  0  0
  6  9  1  0  0  0  0
  7 33  1  0  0  0  0
  7 34  1  0  0  0  0
  7 35  1  0  0  0  0
  8 22  1  0  0  0  0
  8 36  1  0  0  0  0
  8 37  1  0  0  0  0
  9 19  1  0  0  0  0
  9 39  1  0  0  0  0
  9 40  1  0  0  0  0
 10 19  1  0  0  0  0
 10 11  1  0  0  0  0
 10 23  2  0  0  0  0
 11 20  1  0  0  0  0
 11 42  1  0  0  0  0
 11 43  1  0  0  0  0
 12 24  1  0  0  0  0
 12 13  1  0  0  0  0
 12 14  1  0  0  0  0
 12 15  1  0  0  0  0
 13 44  1  0  0  0  0
 13 45  1  0  0  0  0
 13 46  1  0  0  0  0
 14 47  1  0  0  0  0
 14 48  1  0  0  0  0
 14 49  1  0  0  0  0
 15 16  1  0  0  0  0
 15 50  1  0  0  0  0
 15 51  1  0  0  0  0
 16 20  1  0  0  0  0
 16 25  2  0  0  0  0
 18 32  1  0  0  0  0
 19 41  1  0  0  0  0
 20 24  1  0  0  0  0
 22 38  1  0  0  0  0
M  END
>  <score>
0.43226742744445801

$$$$
PV-003342765484
 OpenBabel08202115463D

 46 48  0  0  0  0  0  0  0  0999 V2000
    6.2317    0.1946    4.1994 C   0  0  0  0  0  0  0  0  0  0  0  0
    4.8874   -0.5142    4.1691 C   0  0  0  0  0  0  0  0  0  0  0  0
    3.9327    0.0876    3.1989 C   0  0  0  0  0  0  0  0  0  0  0  0
    3.8316    1.2607    2.5498 C   0  0  0  0  0  0  0  0  0  0  0  0
    4.8745    2.3509    2.4770 C   0  0  0  0  0  0  0  0  0  0  0  0
    2.5887    1.1991    1.8665 C   0  0  0  0  0  0  0  0  0  0  0  0
    1.8914    2.1775    0.9764 C   0  0  0  0  0  0  0  0  0  0  0  0
   -0.1088    2.6802   -0.3606 C   0  0  1  0  0  0  0  0  0  0  0  0
    0.1806    2.8671   -1.8202 C   0  0  0  0  0  0  0  0  0  0  0  0
   -1.0663    2.1617   -1.3871 C   0  0  1  0  0  0  0  0  0  0  0  0
   -2.6146    0.2697   -1.5868 C   0  0  0  0  0  0  0  0  0  0  0  0
   -2.7765   -1.2081   -1.7921 C   0  0  0  0  0  0  0  0  0  0  0  0
   -4.4762   -2.9131   -2.0627 C   0  0  0  0  0  0  0  0  0  0  0  0
   -6.0005   -3.2332   -2.0705 C   0  0  0  0  0  0  0  0  0  0  0  0
   -6.0272   -3.0941   -3.6144 C   0  0  0  0  0  0  0  0  0  0  0  0
   -4.4731   -3.2191   -3.5770 C   0  0  0  0  0  0  0  0  0  0  0  0
    2.4162    3.2439    0.6847 O   0  0  0  0  0  0  0  0  0  0  0  0
   -3.5938    0.9610   -1.3098 O   0  0  0  0  0  0  0  0  0  0  0  0
   -4.1529   -1.5628   -1.7273 O   0  0  0  0  0  0  0  0  0  0  0  0
    2.8321   -0.6653    2.9505 O   0  0  0  0  0  0  0  0  0  0  0  0
    0.6841    1.8207    0.5291 N   0  0  0  0  0  0  0  0  0  0  0  0
   -1.3693    0.7514   -1.6354 N   0  0  0  0  0  0  0  0  0  0  0  0
    1.9792    0.0568    2.0880 N   0  0  0  0  0  0  0  0  0  0  0  0
   -6.4878   -1.9057   -4.0668 F   0  0  0  0  0  0  0  0  0  0  0  0
   -6.6568   -4.0948   -4.2587 F   0  0  0  0  0  0  0  0  0  0  0  0
    6.0770    1.2533    4.2109 H   0  0  0  0  0  0  0  0  0  0  0  0
    6.7957   -0.0738    3.3306 H   0  0  0  0  0  0  0  0  0  0  0  0
    6.7685   -0.0968    5.0779 H   0  0  0  0  0  0  0  0  0  0  0  0
    4.4550   -0.4664    5.1467 H   0  0  0  0  0  0  0  0  0  0  0  0
    5.0477   -1.5371    3.8992 H   0  0  0  0  0  0  0  0  0  0  0  0
    5.8436    1.9299    2.6460 H   0  0  0  0  0  0  0  0  0  0  0  0
    4.6713    3.0890    3.2246 H   0  0  0  0  0  0  0  0  0  0  0  0
    4.8474    2.8060    1.5090 H   0  0  0  0  0  0  0  0  0  0  0  0
    0.3145    0.9557    0.8039 H   0  0  0  0  0  0  0  0  0  0  0  0
   -0.4518    3.5767    0.1122 H   0  0  0  0  0  0  0  0  0  0  0  0
    0.9731    2.3172   -2.2832 H   0  0  0  0  0  0  0  0  0  0  0  0
    0.1195    3.8420   -2.2571 H   0  0  0  0  0  0  0  0  0  0  0  0
   -1.9302    2.7866   -1.4783 H   0  0  0  0  0  0  0  0  0  0  0  0
   -0.6332    0.1392   -1.8445 H   0  0  0  0  0  0  0  0  0  0  0  0
   -2.2398   -1.7322   -1.0291 H   0  0  0  0  0  0  0  0  0  0  0  0
   -2.3867   -1.4768   -2.7517 H   0  0  0  0  0  0  0  0  0  0  0  0
   -3.8834   -3.5797   -1.4717 H   0  0  0  0  0  0  0  0  0  0  0  0
   -6.2419   -4.2139   -1.7169 H   0  0  0  0  0  0  0  0  0  0  0  0
   -6.6003   -2.5109   -1.5572 H   0  0  0  0  0  0  0  0  0  0  0  0
   -3.9631   -2.4874   -4.1681 H   0  0  0  0  0  0  0  0  0  0  0  0
   -4.1087   -4.1945   -3.8234 H   0  0  0  0  0  0  0  0  0  0  0  0
  1  2  1  0  0  0  0
  1 26  1  0  0  0  0
  1 27  1  0  0  0  0
  1 28  1  0  0  0  0
  2  3  1  0  0  0  0
  2 29  1  0  0  0  0
  2 30  1  0  0  0  0
  3 20  1  0  0  0  0
  3  4  2  0  0  0  0
  4  5  1  0  0  0  0
  4  6  1  0  0  0  0
  5 31  1  0  0  0  0
  5 32  1  0  0  0  0
  5 33  1  0  0  0  0
  6  7  1  0  0  0  0
  6 23  2  0  0  0  0
  7 21  1  0  0  0  0
  7 17  2  0  0  0  0
  8 21  1  0  0  0  0
  8  9  1  0  0  0  0
  8 10  1  0  0  0  0
  8 35  1  1  0  0  0
  9 10  1  0  0  0  0
  9 36  1  0  0  0  0
  9 37  1  0  0  0  0
 10 22  1  0  0  0  0
 10 38  1  6  0  0  0
 11 22  1  0  0  0  0
 11 12  1  0  0  0  0
 11 18  2  0  0  0  0
 12 19  1  0  0  0  0
 12 40  1  0  0  0  0
 12 41  1  0  0  0  0
 13 19  1  0  0  0  0
 13 14  1  0  0  0  0
 13 16  1  0  0  0  0
 13 42  1  0  0  0  0
 14 15  1  0  0  0  0
 14 43  1  0  0  0  0
 14 44  1  0  0  0  0
 15 24  1  0  0  0  0
 15 25  1  0  0  0  0
 15 16  1  0  0  0  0
 16 45  1  0  0  0  0
 16 46  1  0  0  0  0
 21 34  1  0  0  0  0
 22 39  1  0  0  0  0
 23 20  1  0  0  0  0
M  END
>  <score>
0.43229323625564575

$$$$
PV-003938113965
 OpenBabel08202115463D

 50 52  0  0  0  0  0  0  0  0999 V2000
    4.9627    3.3656    3.0555 C   0  0  0  0  0  0  0  0  0  0  0  0
    6.0627    2.3189    3.1256 C   0  0  0  0  0  0  0  0  0  0  0  0
    7.4302    2.9717    3.3488 C   0  0  0  0  0  0  0  0  0  0  0  0
    6.0604    1.4327    1.8907 C   0  0  0  0  0  0  0  0  0  0  0  0
    4.7857    0.6482    1.7303 C   0  0  0  0  0  0  0  0  0  0  0  0
    2.7330    0.0014    1.2455 C   0  0  0  0  0  0  0  0  0  0  0  0
    0.6616    0.8009    0.1983 C   0  0  0  0  0  0  0  0  0  0  0  0
   -0.6740    0.3386   -0.2454 C   0  0  0  0  0  0  0  0  0  0  0  0
   -0.9475   -1.0155   -0.2874 C   0  0  0  0  0  0  0  0  0  0  0  0
   -2.1960   -1.4583   -0.6960 C   0  0  0  0  0  0  0  0  0  0  0  0
   -3.1655   -0.5456   -1.0665 C   0  0  0  0  0  0  0  0  0  0  0  0
   -4.6059   -2.3208   -1.6743 C   0  0  2  0  0  0  0  0  0  0  0  0
   -6.1020   -2.5757   -1.4792 C   0  0  0  0  0  0  0  0  0  0  0  0
   -6.8929   -1.9566   -2.6134 C   0  0  0  0  0  0  0  0  0  0  0  0
   -6.3603   -2.4100   -3.9710 C   0  0  0  0  0  0  0  0  0  0  0  0
   -4.8554   -2.1674   -4.0434 C   0  0  0  0  0  0  0  0  0  0  0  0
   -2.8914    0.8126   -1.0244 C   0  0  0  0  0  0  0  0  0  0  0  0
   -1.6466    1.2538   -0.6170 C   0  0  0  0  0  0  0  0  0  0  0  0
    3.5880    1.0725    1.1388 C   0  0  0  0  0  0  0  0  0  0  0  0
    4.6866   -0.6092    2.1717 N   0  0  0  0  0  0  0  0  0  0  0  0
    3.4176   -0.9860    1.8705 N   0  0  0  0  0  0  0  0  0  0  0  0
    1.3955   -0.1536    0.8267 N   0  0  0  0  0  0  0  0  0  0  0  0
    1.0387    1.9481   -0.0001 O   0  0  0  0  0  0  0  0  0  0  0  0
   -4.3516   -0.9289   -1.5956 O   0  0  0  0  0  0  0  0  0  0  0  0
   -4.1936   -2.8088   -2.9606 O   0  0  0  0  0  0  0  0  0  0  0  0
   -1.3367    2.5635   -0.5664 F   0  0  0  0  0  0  0  0  0  0  0  0
    5.1089    3.9800    2.1918 H   0  0  0  0  0  0  0  0  0  0  0  0
    4.9931    3.9741    3.9351 H   0  0  0  0  0  0  0  0  0  0  0  0
    4.0118    2.8794    2.9902 H   0  0  0  0  0  0  0  0  0  0  0  0
    5.8626    1.6953    3.9718 H   0  0  0  0  0  0  0  0  0  0  0  0
    7.6867    3.5642    2.4955 H   0  0  0  0  0  0  0  0  0  0  0  0
    8.1695    2.2111    3.4899 H   0  0  0  0  0  0  0  0  0  0  0  0
    7.3898    3.5959    4.2169 H   0  0  0  0  0  0  0  0  0  0  0  0
    6.8768    0.7448    1.9636 H   0  0  0  0  0  0  0  0  0  0  0  0
    6.1906    2.0513    1.0274 H   0  0  0  0  0  0  0  0  0  0  0  0
    3.0420   -1.8665    2.0802 H   0  0  0  0  0  0  0  0  0  0  0  0
    0.9627   -1.0151    1.0024 H   0  0  0  0  0  0  0  0  0  0  0  0
   -0.2166   -1.7024   -0.0125 H   0  0  0  0  0  0  0  0  0  0  0  0
   -2.4030   -2.4771   -0.7237 H   0  0  0  0  0  0  0  0  0  0  0  0
   -4.0564   -2.8281   -0.9091 H   0  0  0  0  0  0  0  0  0  0  0  0
   -6.2806   -3.6305   -1.4590 H   0  0  0  0  0  0  0  0  0  0  0  0
   -6.4158   -2.1425   -0.5525 H   0  0  0  0  0  0  0  0  0  0  0  0
   -7.9179   -2.2506   -2.5250 H   0  0  0  0  0  0  0  0  0  0  0  0
   -6.8201   -0.8910   -2.5484 H   0  0  0  0  0  0  0  0  0  0  0  0
   -6.8470   -1.8560   -4.7463 H   0  0  0  0  0  0  0  0  0  0  0  0
   -6.5583   -3.4536   -4.0995 H   0  0  0  0  0  0  0  0  0  0  0  0
   -4.4802   -2.5582   -4.9661 H   0  0  0  0  0  0  0  0  0  0  0  0
   -4.6661   -1.1153   -3.9978 H   0  0  0  0  0  0  0  0  0  0  0  0
   -3.6223    1.4994   -1.2993 H   0  0  0  0  0  0  0  0  0  0  0  0
    3.3888    1.9992    0.7110 H   0  0  0  0  0  0  0  0  0  0  0  0
  1  2  1  0  0  0  0
  1 27  1  0  0  0  0
  1 28  1  0  0  0  0
  1 29  1  0  0  0  0
  2  3  1  0  0  0  0
  2  4  1  0  0  0  0
  2 30  1  0  0  0  0
  3 31  1  0  0  0  0
  3 32  1  0  0  0  0
  3 33  1  0  0  0  0
  4  5  1  0  0  0  0
  4 34  1  0  0  0  0
  4 35  1  0  0  0  0
  5 19  1  0  0  0  0
  5 20  2  0  0  0  0
  6 21  1  0  0  0  0
  6 22  1  0  0  0  0
  6 19  2  0  0  0  0
  7 22  1  0  0  0  0
  7  8  1  0  0  0  0
  7 23  2  0  0  0  0
  8 18  1  0  0  0  0
  8  9  2  0  0  0  0
  9 10  1  0  0  0  0
  9 38  1  0  0  0  0
 10 39  1  0  0  0  0
 10 11  2  0  0  0  0
 11 24  1  0  0  0  0
 11 17  1  0  0  0  0
 12 24  1  0  0  0  0
 12 13  1  0  0  0  0
 12 25  1  0  0  0  0
 12 40  1  1  0  0  0
 13 14  1  0  0  0  0
 13 41  1  0  0  0  0
 13 42  1  0  0  0  0
 14 15  1  0  0  0  0
 14 43  1  0  0  0  0
 14 44  1  0  0  0  0
 15 16  1  0  0  0  0
 15 45  1  0  0  0  0
 15 46  1  0  0  0  0
 16 25  1  0  0  0  0
 16 47  1  0  0  0  0
 16 48  1  0  0  0  0
 17 49  1  0  0  0  0
 17 18  2  0  0  0  0
 18 26  1  0  0  0  0
 19 50  1  0  0  0  0
 20 21  1  0  0  0  0
 21 36  1  0  0  0  0
 22 37  1  0  0  0  0
M  END
>  <score>
0.43231964111328125

$$$$
PV-003920005598
 OpenBabel08202115463D

 47 49  0  0  0  0  0  0  0  0999 V2000
   -7.9645   -3.9900   -3.7896 C   0  0  0  0  0  0  0  0  0  0  0  0
   -6.7377   -3.2156   -3.3693 C   0  0  0  0  0  0  0  0  0  0  0  0
   -5.4658   -3.4700   -3.7188 C   0  0  0  0  0  0  0  0  0  0  0  0
   -5.4133   -1.7065   -2.4284 C   0  0  0  0  0  0  0  0  0  0  0  0
   -4.7191   -0.6160   -1.7222 C   0  0  0  0  0  0  0  0  0  0  0  0
   -2.6260    0.3663   -1.0670 C   0  0  0  0  0  0  0  0  0  0  0  0
   -1.1465    0.2674   -1.3435 C   0  0  0  0  0  0  0  0  0  0  0  0
    0.9411    1.5410   -1.3450 C   0  0  0  0  0  0  0  0  0  0  0  0
    1.8401    1.2525   -0.1687 C   0  0  0  0  0  0  0  0  0  0  0  0
    2.6455    2.1073    0.5419 C   0  0  0  0  0  0  0  0  0  0  0  0
    4.1929    1.7048    2.5149 C   0  0  1  0  0  0  0  0  0  0  0  0
    3.8342    0.9840    3.7982 C   0  0  0  0  0  0  0  0  0  0  0  0
    4.9199    1.2063    4.8532 C   0  0  0  0  0  0  0  0  0  0  0  0
    6.5939    1.5329    3.1830 C   0  0  0  0  0  0  0  0  0  0  0  0
    5.5973    1.3317    2.0450 C   0  0  1  0  0  0  0  0  0  0  0  0
   -6.7006   -2.0727   -2.5252 C   0  0  0  0  0  0  0  0  0  0  0  0
   -4.6171   -2.5548   -3.1555 O   0  0  0  0  0  0  0  0  0  0  0  0
   -5.2945    0.3545   -1.2189 O   0  0  0  0  0  0  0  0  0  0  0  0
   -0.5976   -0.7142   -1.8091 O   0  0  0  0  0  0  0  0  0  0  0  0
    6.1944    0.7974    4.3325 O   0  0  0  0  0  0  0  0  0  0  0  0
    5.6128   -0.0373    1.6380 O   0  0  0  0  0  0  0  0  0  0  0  0
   -3.3803   -0.7334   -1.6498 N   0  0  0  0  0  0  0  0  0  0  0  0
   -0.4693    1.3748   -1.0271 N   0  0  0  0  0  0  0  0  0  0  0  0
    3.2322    1.3390    1.4795 N   0  0  0  0  0  0  0  0  0  0  0  0
    2.8158    0.0600    1.3757 N   0  0  0  0  0  0  0  0  0  0  0  0
    1.9730    0.0072    0.3760 N   0  0  0  0  0  0  0  0  0  0  0  0
   -8.2766   -4.6269   -2.9884 H   0  0  0  0  0  0  0  0  0  0  0  0
   -7.7335   -4.5848   -4.6485 H   0  0  0  0  0  0  0  0  0  0  0  0
   -8.7523   -3.3069   -4.0295 H   0  0  0  0  0  0  0  0  0  0  0  0
   -5.1667   -4.2543   -4.3329 H   0  0  0  0  0  0  0  0  0  0  0  0
   -2.9263   -1.5366   -1.9803 H   0  0  0  0  0  0  0  0  0  0  0  0
   -2.7774    0.3617   -0.0078 H   0  0  0  0  0  0  0  0  0  0  0  0
   -2.9900    1.2856   -1.4759 H   0  0  0  0  0  0  0  0  0  0  0  0
   -0.9386    2.1004   -0.5649 H   0  0  0  0  0  0  0  0  0  0  0  0
    1.1042    2.5501   -1.6611 H   0  0  0  0  0  0  0  0  0  0  0  0
    1.1937    0.8721   -2.1410 H   0  0  0  0  0  0  0  0  0  0  0  0
    2.7747    3.1279    0.3892 H   0  0  0  0  0  0  0  0  0  0  0  0
    4.1508    2.7604    2.6844 H   0  0  0  0  0  0  0  0  0  0  0  0
    3.7432   -0.0637    3.6009 H   0  0  0  0  0  0  0  0  0  0  0  0
    2.9025    1.3604    4.1659 H   0  0  0  0  0  0  0  0  0  0  0  0
    4.6911    0.6301    5.7253 H   0  0  0  0  0  0  0  0  0  0  0  0
    4.9578    2.2442    5.1106 H   0  0  0  0  0  0  0  0  0  0  0  0
    6.6408    2.5730    3.4298 H   0  0  0  0  0  0  0  0  0  0  0  0
    7.5597    1.1966    2.8684 H   0  0  0  0  0  0  0  0  0  0  0  0
    5.8719    1.9532    1.2185 H   0  0  0  0  0  0  0  0  0  0  0  0
    6.2249   -0.1473    0.9066 H   0  0  0  0  0  0  0  0  0  0  0  0
   -7.5136   -1.6099   -2.0708 H   0  0  0  0  0  0  0  0  0  0  0  0
  1  2  1  0  0  0  0
  1 27  1  0  0  0  0
  1 28  1  0  0  0  0
  1 29  1  0  0  0  0
  2 16  1  0  0  0  0
  2  3  2  0  0  0  0
  3 17  1  0  0  0  0
  3 30  1  0  0  0  0
  4 17  1  0  0  0  0
  4  5  1  0  0  0  0
  4 16  2  0  0  0  0
  5 22  1  0  0  0  0
  5 18  2  0  0  0  0
  6 22  1  0  0  0  0
  6  7  1  0  0  0  0
  6 32  1  0  0  0  0
  6 33  1  0  0  0  0
  7 23  1  0  0  0  0
  7 19  2  0  0  0  0
  8 23  1  0  0  0  0
  8  9  1  0  0  0  0
  8 35  1  0  0  0  0
  8 36  1  0  0  0  0
  9 26  1  0  0  0  0
  9 10  2  0  0  0  0
 10 24  1  0  0  0  0
 10 37  1  0  0  0  0
 11 24  1  0  0  0  0
 11 12  1  0  0  0  0
 11 15  1  0  0  0  0
 11 38  1  1  0  0  0
 12 13  1  0  0  0  0
 12 39  1  0  0  0  0
 12 40  1  0  0  0  0
 13 20  1  0  0  0  0
 13 41  1  0  0  0  0
 13 42  1  0  0  0  0
 14 20  1  0  0  0  0
 14 15  1  0  0  0  0
 14 43  1  0  0  0  0
 14 44  1  0  0  0  0
 15 21  1  0  0  0  0
 15 45  1  6  0  0  0
 16 47  1  0  0  0  0
 21 46  1  0  0  0  0
 22 31  1  0  0  0  0
 23 34  1  0  0  0  0
 24 25  1  0  0  0  0
 25 26  2  0  0  0  0
M  END
>  <score>
0.43233424425125122

$$$$
PV-002956072827
 OpenBabel08202115463D

 51 53  0  0  0  0  0  0  0  0999 V2000
    4.9109   -0.2823    2.2236 C   0  0  0  0  0  0  0  0  0  0  0  0
    4.3162    1.0787    1.8526 C   0  0  1  0  0  0  0  0  0  0  0  0
    2.8463    1.0900    2.2247 C   0  0  0  0  0  0  0  0  0  0  0  0
    0.5579    1.4602    1.4289 C   0  0  0  0  0  0  0  0  0  0  0  0
   -0.2469    0.3937    0.6850 C   0  0  1  0  0  0  0  0  0  0  0  0
   -1.7320    0.5095    1.0742 C   0  0  0  0  0  0  0  0  0  0  0  0
   -2.5986   -0.4874    0.2919 C   0  0  0  0  0  0  0  0  0  0  0  0
   -2.4536   -0.3325   -1.2242 C   0  0  1  0  0  0  0  0  0  0  0  0
   -4.5018   -1.3765   -2.0970 C   0  0  0  0  0  0  0  0  0  0  0  0
   -5.1536   -2.5381   -2.7329 C   0  0  0  0  0  0  0  0  0  0  0  0
   -6.4303   -2.7762   -3.1065 C   0  0  0  0  0  0  0  0  0  0  0  0
   -6.0984   -4.1765   -3.6146 C   0  0  0  0  0  0  0  0  0  0  0  0
   -4.6280   -3.8742   -3.1929 C   0  0  0  0  0  0  0  0  0  0  0  0
   -0.9434   -0.3817   -1.6444 C   0  0  0  0  0  0  0  0  0  0  0  0
   -0.0878    0.6039   -0.8563 C   0  0  0  0  0  0  0  0  0  0  0  0
    5.0532    2.2002    2.5821 C   0  0  0  0  0  0  0  0  0  0  0  0
    4.9503    3.6393    2.1843 C   0  0  0  0  0  0  0  0  0  0  0  0
    6.2596    2.9249    2.0644 C   0  0  0  0  0  0  0  0  0  0  0  0
    4.5306    1.2682    0.4534 O   0  0  0  0  0  0  0  0  0  0  0  0
    2.4792    0.8929    3.3823 O   0  0  0  0  0  0  0  0  0  0  0  0
   -5.1655   -0.3889   -1.7650 O   0  0  0  0  0  0  0  0  0  0  0  0
    1.9915    1.3265    1.2170 N   0  0  0  0  0  0  0  0  0  0  0  0
   -3.1704   -1.4162   -1.8869 N   0  0  0  0  0  0  0  0  0  0  0  0
   -7.8596   -1.8646   -3.0369 Cl  0  0  0  0  0  0  0  0  0  0  0  0
    5.9678   -0.2674    2.0577 H   0  0  0  0  0  0  0  0  0  0  0  0
    4.4656   -1.0431    1.6170 H   0  0  0  0  0  0  0  0  0  0  0  0
    4.7148   -0.4877    3.2552 H   0  0  0  0  0  0  0  0  0  0  0  0
    4.1845    2.1238    0.1892 H   0  0  0  0  0  0  0  0  0  0  0  0
    2.3451    1.4121    0.3071 H   0  0  0  0  0  0  0  0  0  0  0  0
    0.2490    2.4251    1.0847 H   0  0  0  0  0  0  0  0  0  0  0  0
    0.3565    1.3733    2.4762 H   0  0  0  0  0  0  0  0  0  0  0  0
    0.1156   -0.5773    0.9506 H   0  0  0  0  0  0  0  0  0  0  0  0
   -1.8334    0.3114    2.1208 H   0  0  0  0  0  0  0  0  0  0  0  0
   -2.0698    1.5029    0.8644 H   0  0  0  0  0  0  0  0  0  0  0  0
   -2.3079   -1.4806    0.5638 H   0  0  0  0  0  0  0  0  0  0  0  0
   -3.6237   -0.3305    0.5555 H   0  0  0  0  0  0  0  0  0  0  0  0
   -2.8707    0.6066   -1.5227 H   0  0  0  0  0  0  0  0  0  0  0  0
   -2.6670   -2.2005   -2.1899 H   0  0  0  0  0  0  0  0  0  0  0  0
   -6.2450   -4.3208   -4.6647 H   0  0  0  0  0  0  0  0  0  0  0  0
   -6.5665   -4.9736   -3.0758 H   0  0  0  0  0  0  0  0  0  0  0  0
   -4.2421   -4.5007   -2.4160 H   0  0  0  0  0  0  0  0  0  0  0  0
   -3.9257   -3.8312   -3.9990 H   0  0  0  0  0  0  0  0  0  0  0  0
   -0.5720   -1.3708   -1.4751 H   0  0  0  0  0  0  0  0  0  0  0  0
   -0.8687   -0.1454   -2.6853 H   0  0  0  0  0  0  0  0  0  0  0  0
    0.9390    0.4633   -1.1224 H   0  0  0  0  0  0  0  0  0  0  0  0
   -0.3878    1.6006   -1.1043 H   0  0  0  0  0  0  0  0  0  0  0  0
    5.0727    2.0580    3.6425 H   0  0  0  0  0  0  0  0  0  0  0  0
    4.8191    4.3927    2.9328 H   0  0  0  0  0  0  0  0  0  0  0  0
    4.4080    3.9128    1.3034 H   0  0  0  0  0  0  0  0  0  0  0  0
    6.6527    2.6871    1.0980 H   0  0  0  0  0  0  0  0  0  0  0  0
    7.0638    3.1669    2.7274 H   0  0  0  0  0  0  0  0  0  0  0  0
  1  2  1  0  0  0  0
  1 25  1  0  0  0  0
  1 26  1  0  0  0  0
  1 27  1  0  0  0  0
  2 19  1  6  0  0  0
  2  3  1  0  0  0  0
  2 16  1  0  0  0  0
  3 22  1  0  0  0  0
  3 20  2  0  0  0  0
  4 22  1  0  0  0  0
  4  5  1  0  0  0  0
  4 30  1  0  0  0  0
  4 31  1  0  0  0  0
  5  6  1  0  0  0  0
  5 15  1  0  0  0  0
  5 32  1  1  0  0  0
  6  7  1  0  0  0  0
  6 33  1  0  0  0  0
  6 34  1  0  0  0  0
  7  8  1  0  0  0  0
  7 35  1  0  0  0  0
  7 36  1  0  0  0  0
  8 23  1  0  0  0  0
  8 14  1  0  0  0  0
  8 37  1  6  0  0  0
  9 23  1  0  0  0  0
  9 10  1  0  0  0  0
  9 21  2  0  0  0  0
 10 13  1  0  0  0  0
 10 11  2  0  0  0  0
 11 24  1  0  0  0  0
 11 12  1  0  0  0  0
 12 13  1  0  0  0  0
 12 39  1  0  0  0  0
 12 40  1  0  0  0  0
 13 41  1  0  0  0  0
 13 42  1  0  0  0  0
 14 15  1  0  0  0  0
 14 43  1  0  0  0  0
 14 44  1  0  0  0  0
 15 45  1  0  0  0  0
 15 46  1  0  0  0  0
 16 17  1  0  0  0  0
 16 18  1  0  0  0  0
 16 47  1  0  0  0  0
 17 18  1  0  0  0  0
 17 48  1  0  0  0  0
 17 49  1  0  0  0  0
 18 50  1  0  0  0  0
 18 51  1  0  0  0  0
 19 28  1  0  0  0  0
 22 29  1  0  0  0  0
 23 38  1  0  0  0  0
M  END
>  <score>
0.43258917331695557

$$$$
Z4352836637
 OpenBabel08202115463D

 45 47  0  0  0  0  0  0  0  0999 V2000
   -6.3468   -3.8436   -3.4801 C   0  0  0  0  0  0  0  0  0  0  0  0
   -4.6828   -2.8831   -2.0519 C   0  0  0  0  0  0  0  0  0  0  0  0
   -5.3079   -1.6806   -2.3429 C   0  0  0  0  0  0  0  0  0  0  0  0
   -4.6940   -0.4859   -2.0173 C   0  0  0  0  0  0  0  0  0  0  0  0
   -3.4555   -0.4903   -1.3947 C   0  0  0  0  0  0  0  0  0  0  0  0
   -2.8092    0.7958   -1.0450 C   0  0  0  0  0  0  0  0  0  0  0  0
   -1.5339    2.1507   -0.0958 C   0  0  0  0  0  0  0  0  0  0  0  0
   -0.5186    2.9108    0.7150 C   0  0  0  0  0  0  0  0  0  0  0  0
    0.6078    2.0294    1.2384 C   0  0  0  0  0  0  0  0  0  0  0  0
    1.4601    1.5075    0.0931 C   0  0  0  0  0  0  0  0  0  0  0  0
    2.5027    0.4933    0.4755 C   0  0  0  0  0  0  0  0  0  0  0  0
    4.6824    0.2012    1.6046 C   0  0  1  0  0  0  0  0  0  0  0  0
    5.9060    0.8281    1.1013 C   0  0  0  0  0  0  0  0  0  0  0  0
    6.3669    0.2037    3.2854 C   0  0  0  0  0  0  0  0  0  0  0  0
    4.8768    0.1974    3.0854 C   0  0  0  0  0  0  0  0  0  0  0  0
   -2.8321   -1.6892   -1.1045 C   0  0  0  0  0  0  0  0  0  0  0  0
   -3.4479   -2.8874   -1.4312 C   0  0  0  0  0  0  0  0  0  0  0  0
   -5.3838   -3.9973   -2.4258 O   0  0  0  0  0  0  0  0  0  0  0  0
   -2.2787    2.8544   -0.9682 O   0  0  0  0  0  0  0  0  0  0  0  0
    2.4775   -0.6777    0.1445 O   0  0  0  0  0  0  0  0  0  0  0  0
    6.9499    0.4742    1.9936 O   0  0  0  0  0  0  0  0  0  0  0  0
   -3.1275    1.9303   -1.6095 N   0  0  0  0  0  0  0  0  0  0  0  0
    3.4853    0.9959    1.2284 N   0  0  0  0  0  0  0  0  0  0  0  0
   -1.8165    0.8846   -0.0892 N   0  0  0  0  0  0  0  0  0  0  0  0
    4.3149    1.3055    3.6440 F   0  0  0  0  0  0  0  0  0  0  0  0
    4.3302   -0.9094    3.6320 F   0  0  0  0  0  0  0  0  0  0  0  0
   -7.0808   -3.1209   -3.1908 H   0  0  0  0  0  0  0  0  0  0  0  0
   -6.8250   -4.7826   -3.6658 H   0  0  0  0  0  0  0  0  0  0  0  0
   -5.8520   -3.5128   -4.3693 H   0  0  0  0  0  0  0  0  0  0  0  0
   -6.2389   -1.6773   -2.8063 H   0  0  0  0  0  0  0  0  0  0  0  0
   -5.1613    0.4164   -2.2393 H   0  0  0  0  0  0  0  0  0  0  0  0
   -1.0159    3.3593    1.5495 H   0  0  0  0  0  0  0  0  0  0  0  0
   -0.0943    3.6758    0.0988 H   0  0  0  0  0  0  0  0  0  0  0  0
    0.1873    1.2006    1.7687 H   0  0  0  0  0  0  0  0  0  0  0  0
    1.2228    2.6023    1.9006 H   0  0  0  0  0  0  0  0  0  0  0  0
    1.9593    2.3418   -0.3537 H   0  0  0  0  0  0  0  0  0  0  0  0
    0.8076    1.0556   -0.6246 H   0  0  0  0  0  0  0  0  0  0  0  0
    3.4138    1.9212    1.5434 H   0  0  0  0  0  0  0  0  0  0  0  0
    4.5815   -0.7959    1.2296 H   0  0  0  0  0  0  0  0  0  0  0  0
    6.1255    0.4682    0.1179 H   0  0  0  0  0  0  0  0  0  0  0  0
    5.7899    1.8915    1.0749 H   0  0  0  0  0  0  0  0  0  0  0  0
    6.6433    0.9664    3.9831 H   0  0  0  0  0  0  0  0  0  0  0  0
    6.6956   -0.7479    3.6477 H   0  0  0  0  0  0  0  0  0  0  0  0
   -1.9010   -1.6924   -0.6411 H   0  0  0  0  0  0  0  0  0  0  0  0
   -2.9807   -3.7896   -1.2092 H   0  0  0  0  0  0  0  0  0  0  0  0
  1 18  1  0  0  0  0
  1 27  1  0  0  0  0
  1 28  1  0  0  0  0
  1 29  1  0  0  0  0
  2 18  1  0  0  0  0
  2 17  1  0  0  0  0
  2  3  2  0  0  0  0
  3  4  1  0  0  0  0
  3 30  1  0  0  0  0
  4 31  1  0  0  0  0
  4  5  2  0  0  0  0
  5  6  1  0  0  0  0
  5 16  1  0  0  0  0
  6 24  1  0  0  0  0
  6 22  2  0  0  0  0
  7 19  1  0  0  0  0
  7  8  1  0  0  0  0
  7 24  2  0  0  0  0
  8  9  1  0  0  0  0
  8 32  1  0  0  0  0
  8 33  1  0  0  0  0
  9 10  1  0  0  0  0
  9 34  1  0  0  0  0
  9 35  1  0  0  0  0
 10 11  1  0  0  0  0
 10 36  1  0  0  0  0
 10 37  1  0  0  0  0
 11 23  1  0  0  0  0
 11 20  2  0  0  0  0
 12 23  1  0  0  0  0
 12 13  1  0  0  0  0
 12 15  1  0  0  0  0
 12 39  1  6  0  0  0
 13 21  1  0  0  0  0
 13 40  1  0  0  0  0
 13 41  1  0  0  0  0
 14 21  1  0  0  0  0
 14 15  1  0  0  0  0
 14 42  1  0  0  0  0
 14 43  1  0  0  0  0
 15 25  1  0  0  0  0
 15 26  1  0  0  0  0
 16 44  1  0  0  0  0
 16 17  2  0  0  0  0
 17 45  1  0  0  0  0
 22 19  1  0  0  0  0
 23 38  1  0  0  0  0
M  END
>  <score>
0.43279975652694702

$$$$
PV-003672206028
 OpenBabel08202115463D

 49 52  0  0  0  0  0  0  0  0999 V2000
    6.8864    0.2634    3.0267 C   0  0  0  0  0  0  0  0  0  0  0  0
    5.8324    0.8480    3.9529 C   0  0  0  0  0  0  0  0  0  0  0  0
    5.4108    2.2311    3.4842 C   0  0  0  0  0  0  0  0  0  0  0  0
    4.8608    2.2367    2.0830 C   0  0  0  0  0  0  0  0  0  0  0  0
    3.5386    2.2360    0.3170 C   0  0  0  0  0  0  0  0  0  0  0  0
    2.4893    2.2358   -0.7482 C   0  0  0  0  0  0  0  0  0  0  0  0
    0.9979    1.0930    0.8655 C   0  0  1  0  0  0  0  0  0  0  0  0
    0.0438    1.7847    1.7930 C   0  0  0  0  0  0  0  0  0  0  0  0
   -0.3818    0.5488    1.0640 C   0  0  1  0  0  0  0  0  0  0  0  0
   -1.9368   -0.6551   -0.3747 C   0  0  0  0  0  0  0  0  0  0  0  0
   -3.0216   -0.6356   -1.3938 C   0  0  0  0  0  0  0  0  0  0  0  0
   -4.6920   -1.1943   -2.7033 C   0  0  0  0  0  0  0  0  0  0  0  0
   -5.8282   -1.7250   -3.5336 C   0  0  0  0  0  0  0  0  0  0  0  0
   -5.9907   -3.2533   -3.5278 C   0  0  0  0  0  0  0  0  0  0  0  0
   -7.2648   -4.0437   -3.5518 C   0  0  0  0  0  0  0  0  0  0  0  0
   -6.4346   -3.9967   -2.3074 C   0  0  0  0  0  0  0  0  0  0  0  0
   -3.8941   -1.6988   -1.7460 C   0  0  0  0  0  0  0  0  0  0  0  0
    3.5151    2.2364    1.6914 C   0  0  0  0  0  0  0  0  0  0  0  0
    5.6720    2.2428    1.0211 N   0  0  0  0  0  0  0  0  0  0  0  0
    4.8414    2.2358   -0.0528 N   0  0  0  0  0  0  0  0  0  0  0  0
    1.3127    1.6975   -0.4240 N   0  0  0  0  0  0  0  0  0  0  0  0
   -1.3482    0.5079   -0.0346 N   0  0  0  0  0  0  0  0  0  0  0  0
   -3.2763    0.4432   -2.0986 N   0  0  0  0  0  0  0  0  0  0  0  0
    2.7178    2.7097   -1.8531 O   0  0  0  0  0  0  0  0  0  0  0  0
   -1.5855   -1.7183    0.1471 O   0  0  0  0  0  0  0  0  0  0  0  0
   -4.3551    0.0979   -2.9412 O   0  0  0  0  0  0  0  0  0  0  0  0
    7.2918   -0.6255    3.4630 H   0  0  0  0  0  0  0  0  0  0  0  0
    7.6693    0.9782    2.8815 H   0  0  0  0  0  0  0  0  0  0  0  0
    6.4400    0.0260    2.0837 H   0  0  0  0  0  0  0  0  0  0  0  0
    6.2353    0.9203    4.9415 H   0  0  0  0  0  0  0  0  0  0  0  0
    4.9774    0.2048    3.9617 H   0  0  0  0  0  0  0  0  0  0  0  0
    6.2633    2.8768    3.5180 H   0  0  0  0  0  0  0  0  0  0  0  0
    4.6567    2.6003    4.1475 H   0  0  0  0  0  0  0  0  0  0  0  0
    5.1478    2.2312   -0.9837 H   0  0  0  0  0  0  0  0  0  0  0  0
    0.6066    1.7090   -1.1035 H   0  0  0  0  0  0  0  0  0  0  0  0
    1.7851    0.5433    1.3377 H   0  0  0  0  0  0  0  0  0  0  0  0
   -0.3705    2.7339    1.5240 H   0  0  0  0  0  0  0  0  0  0  0  0
    0.2073    1.7528    2.8499 H   0  0  0  0  0  0  0  0  0  0  0  0
   -0.4047   -0.3199    1.6883 H   0  0  0  0  0  0  0  0  0  0  0  0
   -1.5674    1.3283   -0.5238 H   0  0  0  0  0  0  0  0  0  0  0  0
   -5.6714   -1.4136   -4.5452 H   0  0  0  0  0  0  0  0  0  0  0  0
   -6.7358   -1.2952   -3.1642 H   0  0  0  0  0  0  0  0  0  0  0  0
   -5.1915   -3.7444   -4.0426 H   0  0  0  0  0  0  0  0  0  0  0  0
   -7.3233   -4.9472   -4.1221 H   0  0  0  0  0  0  0  0  0  0  0  0
   -8.2074   -3.5384   -3.5855 H   0  0  0  0  0  0  0  0  0  0  0  0
   -6.7845   -3.4584   -1.4515 H   0  0  0  0  0  0  0  0  0  0  0  0
   -5.9004   -4.8671   -1.9881 H   0  0  0  0  0  0  0  0  0  0  0  0
   -3.9121   -2.6600   -1.3493 H   0  0  0  0  0  0  0  0  0  0  0  0
    2.6780    2.2364    2.3085 H   0  0  0  0  0  0  0  0  0  0  0  0
  1  2  1  0  0  0  0
  1 27  1  0  0  0  0
  1 28  1  0  0  0  0
  1 29  1  0  0  0  0
  2  3  1  0  0  0  0
  2 30  1  0  0  0  0
  2 31  1  0  0  0  0
  3  4  1  0  0  0  0
  3 32  1  0  0  0  0
  3 33  1  0  0  0  0
  4 18  1  0  0  0  0
  4 19  2  0  0  0  0
  5 20  1  0  0  0  0
  5  6  1  0  0  0  0
  5 18  2  0  0  0  0
  6 21  1  0  0  0  0
  6 24  2  0  0  0  0
  7 21  1  0  0  0  0
  7  8  1  0  0  0  0
  7  9  1  0  0  0  0
  7 36  1  1  0  0  0
  8  9  1  0  0  0  0
  8 37  1  0  0  0  0
  8 38  1  0  0  0  0
  9 22  1  0  0  0  0
  9 39  1  1  0  0  0
 10 22  1  0  0  0  0
 10 11  1  0  0  0  0
 10 25  2  0  0  0  0
 11 17  1  0  0  0  0
 11 23  2  0  0  0  0
 12 26  1  0  0  0  0
 12 13  1  0  0  0  0
 12 17  2  0  0  0  0
 13 14  1  0  0  0  0
 13 41  1  0  0  0  0
 13 42  1  0  0  0  0
 14 15  1  0  0  0  0
 14 16  1  0  0  0  0
 14 43  1  0  0  0  0
 15 16  1  0  0  0  0
 15 44  1  0  0  0  0
 15 45  1  0  0  0  0
 16 46  1  0  0  0  0
 16 47  1  0  0  0  0
 17 48  1  0  0  0  0
 18 49  1  0  0  0  0
 19 20  1  0  0  0  0
 20 34  1  0  0  0  0
 21 35  1  0  0  0  0
 22 40  1  0  0  0  0
 23 26  1  0  0  0  0
M  END
>  <score>
0.43295925855636597

$$$$
PV-003792698396
 OpenBabel08202115463D

 48 50  0  0  0  0  0  0  0  0999 V2000
   -1.5059    1.9931   -1.0702 C   0  0  0  0  0  0  0  0  0  0  0  0
   -1.1454    0.5507   -0.7539 C   0  0  0  0  0  0  0  0  0  0  0  0
   -1.2801    0.2947    0.7383 C   0  0  0  0  0  0  0  0  0  0  0  0
    0.2797    0.2675   -1.2003 C   0  0  0  0  0  0  0  0  0  0  0  0
    1.7715    0.8396    0.6613 C   0  0  0  0  0  0  0  0  0  0  0  0
    2.7548    1.8494    1.2202 C   0  0  0  0  0  0  0  0  0  0  0  0
    4.3467    2.3554    2.9958 C   0  0  0  0  0  0  0  0  0  0  0  0
    5.0782    1.5507    4.0915 C   0  0  2  0  0  0  0  0  0  0  0  0
    6.2037    0.6069    3.6631 C   0  0  0  0  0  0  0  0  0  0  0  0
    4.7330    0.0751    3.8029 C   0  0  2  0  0  0  0  0  0  0  0  0
    3.8219    0.1125    2.5572 C   0  0  0  0  0  0  0  0  0  0  0  0
   -3.3783   -0.3196   -1.2866 C   0  0  0  0  0  0  0  0  0  0  0  0
   -4.1594   -1.2541   -2.0837 C   0  0  0  0  0  0  0  0  0  0  0  0
   -3.9069   -2.3345   -2.8432 C   0  0  0  0  0  0  0  0  0  0  0  0
   -5.1755   -2.7529   -3.3240 C   0  0  0  0  0  0  0  0  0  0  0  0
   -5.4703   -3.9128   -4.2204 C   0  0  0  0  0  0  0  0  0  0  0  0
    1.2580    1.1315   -0.5372 N   0  0  0  0  0  0  0  0  0  0  0  0
    3.2295    1.4749    2.5675 N   0  0  0  0  0  0  0  0  0  0  0  0
   -2.0453   -0.3329   -1.4802 N   0  0  0  0  0  0  0  0  0  0  0  0
   -6.7705   -4.1737   -4.4573 N   0  0  0  0  0  0  0  0  0  0  0  0
   -6.1346   -1.9738   -2.8787 N   0  0  0  0  0  0  0  0  0  0  0  0
    1.4796   -0.1700    1.2810 O   0  0  0  0  0  0  0  0  0  0  0  0
   -3.9214    0.4283   -0.4903 O   0  0  0  0  0  0  0  0  0  0  0  0
   -4.5665   -4.5757   -4.7021 O   0  0  0  0  0  0  0  0  0  0  0  0
   -5.4918   -1.0002   -2.0838 O   0  0  0  0  0  0  0  0  0  0  0  0
   -0.8263    2.6495   -0.5679 H   0  0  0  0  0  0  0  0  0  0  0  0
   -2.5038    2.1919   -0.7391 H   0  0  0  0  0  0  0  0  0  0  0  0
   -1.4413    2.1533   -2.1262 H   0  0  0  0  0  0  0  0  0  0  0  0
   -2.2761    0.5279    1.0522 H   0  0  0  0  0  0  0  0  0  0  0  0
   -0.5854    0.9110    1.2698 H   0  0  0  0  0  0  0  0  0  0  0  0
   -1.0736   -0.7349    0.9433 H   0  0  0  0  0  0  0  0  0  0  0  0
    0.3454    0.4231   -2.2569 H   0  0  0  0  0  0  0  0  0  0  0  0
    0.5136   -0.7519   -0.9742 H   0  0  0  0  0  0  0  0  0  0  0  0
    1.5463    1.9524   -0.9880 H   0  0  0  0  0  0  0  0  0  0  0  0
    2.2745    2.8039    1.2767 H   0  0  0  0  0  0  0  0  0  0  0  0
    3.5967    1.9115    0.5628 H   0  0  0  0  0  0  0  0  0  0  0  0
    3.9716    3.2765    3.3906 H   0  0  0  0  0  0  0  0  0  0  0  0
    5.0027    2.5593    2.1754 H   0  0  0  0  0  0  0  0  0  0  0  0
    5.0469    1.9028    5.1014 H   0  0  0  0  0  0  0  0  0  0  0  0
    6.6474    0.7071    2.6946 H   0  0  0  0  0  0  0  0  0  0  0  0
    6.9505    0.3087    4.3690 H   0  0  0  0  0  0  0  0  0  0  0  0
    4.4924   -0.5800    4.6140 H   0  0  0  0  0  0  0  0  0  0  0  0
    4.3936   -0.0441    1.6663 H   0  0  0  0  0  0  0  0  0  0  0  0
    3.0570   -0.6325    2.6262 H   0  0  0  0  0  0  0  0  0  0  0  0
   -1.6683   -0.9594   -2.1327 H   0  0  0  0  0  0  0  0  0  0  0  0
   -2.9823   -2.7695   -3.0366 H   0  0  0  0  0  0  0  0  0  0  0  0
   -7.4635   -3.5913   -4.0817 H   0  0  0  0  0  0  0  0  0  0  0  0
   -7.0234   -4.9458   -5.0053 H   0  0  0  0  0  0  0  0  0  0  0  0
  1  2  1  0  0  0  0
  1 26  1  0  0  0  0
  1 27  1  0  0  0  0
  1 28  1  0  0  0  0
  2  3  1  0  0  0  0
  2  4  1  0  0  0  0
  2 19  1  0  0  0  0
  3 29  1  0  0  0  0
  3 30  1  0  0  0  0
  3 31  1  0  0  0  0
  4 17  1  0  0  0  0
  4 32  1  0  0  0  0
  4 33  1  0  0  0  0
  5 17  1  0  0  0  0
  5  6  1  0  0  0  0
  5 22  2  0  0  0  0
  6 18  1  0  0  0  0
  6 35  1  0  0  0  0
  6 36  1  0  0  0  0
  7 18  1  0  0  0  0
  7  8  1  0  0  0  0
  7 37  1  0  0  0  0
  7 38  1  0  0  0  0
  8  9  1  0  0  0  0
  8 10  1  0  0  0  0
  8 39  1  1  0  0  0
  9 10  1  0  0  0  0
  9 40  1  0  0  0  0
  9 41  1  0  0  0  0
 10 11  1  0  0  0  0
 10 42  1  1  0  0  0
 11 18  1  0  0  0  0
 11 43  1  0  0  0  0
 11 44  1  0  0  0  0
 12 19  1  0  0  0  0
 12 13  1  0  0  0  0
 12 23  2  0  0  0  0
 13 25  1  0  0  0  0
 13 14  2  0  0  0  0
 14 15  1  0  0  0  0
 14 46  1  0  0  0  0
 15 16  1  0  0  0  0
 15 21  2  0  0  0  0
 16 20  1  0  0  0  0
 16 24  2  0  0  0  0
 17 34  1  0  0  0  0
 19 45  1  0  0  0  0
 20 47  1  0  0  0  0
 20 48  1  0  0  0  0
 21 25  1  0  0  0  0
M  END
>  <score>
0.43296772241592407

$$$$
PV-004064479125
 OpenBabel08202115463D

 43 44  0  0  0  0  0  0  0  0999 V2000
   -2.7002    1.0074   -0.9336 O   0  0  0  0  0  0  0  0  0  0  0  0
   -3.7305   -3.6949   -1.9420 O   0  0  0  0  0  0  0  0  0  0  0  0
   -5.5851   -2.4184   -2.2829 O   0  0  0  0  0  0  0  0  0  0  0  0
   -1.8996    0.0776   -0.8781 C   0  0  0  0  0  0  0  0  0  0  0  0
   -2.3211   -1.3437   -1.1967 C   0  0  0  0  0  0  0  0  0  0  0  0
   -4.2960   -2.6140   -1.9577 C   0  0  0  0  0  0  0  0  0  0  0  0
   -6.3611   -3.6263   -2.4638 C   0  0  0  0  0  0  0  0  0  0  0  0
   -7.7726   -3.2140   -2.8611 C   0  0  0  0  0  0  0  0  0  0  0  0
   -0.0401    1.5512   -0.2703 C   0  0  0  0  0  0  0  0  0  0  0  0
    1.4149    1.5930    0.1251 C   0  0  0  0  0  0  0  0  0  0  0  0
    1.7801    1.6201    1.4719 C   0  0  0  0  0  0  0  0  0  0  0  0
    3.1267    1.6673    1.8453 C   0  0  0  0  0  0  0  0  0  0  0  0
    4.1102    1.6758    0.8629 C   0  0  0  0  0  0  0  0  0  0  0  0
    3.7341    1.6433   -0.4909 C   0  0  0  0  0  0  0  0  0  0  0  0
    2.4061    1.6051   -0.8460 C   0  0  0  0  0  0  0  0  0  0  0  0
    5.5851    1.6162    1.1937 C   0  0  0  0  0  0  0  0  0  0  0  0
    5.8938    1.8742    2.6623 C   0  0  0  0  0  0  0  0  0  0  0  0
    4.8998    1.2031    3.5778 C   0  0  0  0  0  0  0  0  0  0  0  0
    3.4909    1.6975    3.3136 C   0  0  0  0  0  0  0  0  0  0  0  0
   -3.7097   -1.4323   -1.6477 N   0  0  0  0  0  0  0  0  0  0  0  0
   -0.6122    0.2415   -0.5377 N   0  0  0  0  0  0  0  0  0  0  0  0
   -8.2594   -2.2627   -2.0625 F   0  0  0  0  0  0  0  0  0  0  0  0
   -8.6258   -4.2383   -2.8089 F   0  0  0  0  0  0  0  0  0  0  0  0
   -7.8177   -2.7351   -4.1061 F   0  0  0  0  0  0  0  0  0  0  0  0
    0.8254    1.6004    2.4218 F   0  0  0  0  0  0  0  0  0  0  0  0
   -2.2088   -1.9397   -0.3152 H   0  0  0  0  0  0  0  0  0  0  0  0
   -1.6854   -1.7243   -1.9686 H   0  0  0  0  0  0  0  0  0  0  0  0
   -4.2342   -0.6085   -1.7286 H   0  0  0  0  0  0  0  0  0  0  0  0
   -6.3875   -4.1827   -1.5503 H   0  0  0  0  0  0  0  0  0  0  0  0
   -5.9261   -4.2267   -3.2353 H   0  0  0  0  0  0  0  0  0  0  0  0
   -0.0374   -0.5491   -0.4669 H   0  0  0  0  0  0  0  0  0  0  0  0
   -0.6036    1.9938    0.5244 H   0  0  0  0  0  0  0  0  0  0  0  0
   -0.1508    2.1394   -1.1572 H   0  0  0  0  0  0  0  0  0  0  0  0
    4.4658    1.6481   -1.2300 H   0  0  0  0  0  0  0  0  0  0  0  0
    2.1421    1.5850   -1.8517 H   0  0  0  0  0  0  0  0  0  0  0  0
    6.0928    2.3532    0.6073 H   0  0  0  0  0  0  0  0  0  0  0  0
    5.9495    0.6432    0.9379 H   0  0  0  0  0  0  0  0  0  0  0  0
    6.8717    1.4987    2.8804 H   0  0  0  0  0  0  0  0  0  0  0  0
    5.8685    2.9291    2.8399 H   0  0  0  0  0  0  0  0  0  0  0  0
    4.9347    0.1460    3.4159 H   0  0  0  0  0  0  0  0  0  0  0  0
    5.1603    1.4177    4.5932 H   0  0  0  0  0  0  0  0  0  0  0  0
    2.8041    1.0760    3.8493 H   0  0  0  0  0  0  0  0  0  0  0  0
    3.4102    2.7048    3.6655 H   0  0  0  0  0  0  0  0  0  0  0  0
  4  5  1  0  0  0  0
  4 21  1  0  0  0  0
  4  1  2  0  0  0  0
  5 20  1  0  0  0  0
  5 26  1  0  0  0  0
  5 27  1  0  0  0  0
  6 20  1  0  0  0  0
  6  3  1  0  0  0  0
  6  2  2  0  0  0  0
  7  3  1  0  0  0  0
  7  8  1  0  0  0  0
  7 29  1  0  0  0  0
  7 30  1  0  0  0  0
  8 22  1  0  0  0  0
  8 23  1  0  0  0  0
  8 24  1  0  0  0  0
  9 21  1  0  0  0  0
  9 10  1  0  0  0  0
  9 32  1  0  0  0  0
  9 33  1  0  0  0  0
 10 15  1  0  0  0  0
 10 11  2  0  0  0  0
 11 25  1  0  0  0  0
 11 12  1  0  0  0  0
 12 19  1  0  0  0  0
 12 13  2  0  0  0  0
 13 14  1  0  0  0  0
 13 16  1  0  0  0  0
 14 34  1  0  0  0  0
 14 15  2  0  0  0  0
 15 35  1  0  0  0  0
 16 17  1  0  0  0  0
 16 36  1  0  0  0  0
 16 37  1  0  0  0  0
 17 18  1  0  0  0  0
 17 38  1  0  0  0  0
 17 39  1  0  0  0  0
 18 19  1  0  0  0  0
 18 40  1  0  0  0  0
 18 41  1  0  0  0  0
 19 42  1  0  0  0  0
 19 43  1  0  0  0  0
 20 28  1  0  0  0  0
 21 31  1  0  0  0  0
M  END
>  <score>
0.4329993724822998

$$$$
PV-003603563379
 OpenBabel08202115463D

 54 56  0  0  0  0  0  0  0  0999 V2000
   -6.5529   -4.0628   -4.9093 C   0  0  0  0  0  0  0  0  0  0  0  0
   -5.6162   -3.3938   -3.9631 C   0  0  0  0  0  0  0  0  0  0  0  0
   -4.7089   -3.9676   -3.1035 C   0  0  0  0  0  0  0  0  0  0  0  0
   -4.0847   -2.9034   -2.4104 C   0  0  0  0  0  0  0  0  0  0  0  0
   -2.7844   -1.7531   -0.9521 C   0  0  0  0  0  0  0  0  0  0  0  0
   -3.2552   -0.5301   -1.4148 C   0  0  0  0  0  0  0  0  0  0  0  0
   -2.7002    0.7569   -0.9355 C   0  0  0  0  0  0  0  0  0  0  0  0
   -0.4978   -0.1446   -1.3352 C   0  0  0  0  0  0  0  0  0  0  0  0
   -0.7845    2.3079   -1.0317 C   0  0  0  0  0  0  0  0  0  0  0  0
   -0.3099    2.7008    0.3454 C   0  0  0  0  0  0  0  0  0  0  0  0
    1.6221    2.0454    1.8381 C   0  0  0  0  0  0  0  0  0  0  0  0
    2.6542    1.0088    2.1778 C   0  0  1  0  0  0  0  0  0  0  0  0
    3.7413    0.9667    1.0955 C   0  0  0  0  0  0  0  0  0  0  0  0
    5.0448    1.3300    1.8122 C   0  0  0  0  0  0  0  0  0  0  0  0
    4.8035    0.9354    3.2733 C   0  0  0  0  0  0  0  0  0  0  0  0
    5.7560    1.6767    4.2140 C   0  0  0  0  0  0  0  0  0  0  0  0
    4.9589   -0.5759    3.4747 C   0  0  0  0  0  0  0  0  0  0  0  0
    3.3644    1.3756    3.4852 C   0  0  0  0  0  0  0  0  0  0  0  0
   -4.1992   -0.4749   -2.4102 C   0  0  0  0  0  0  0  0  0  0  0  0
   -4.6229   -1.7026   -2.9040 C   0  0  0  0  0  0  0  0  0  0  0  0
   -3.1570   -2.9477   -1.4110 N   0  0  0  0  0  0  0  0  0  0  0  0
   -1.3886    0.9746   -1.0582 N   0  0  0  0  0  0  0  0  0  0  0  0
    0.6411    1.7398    0.9070 N   0  0  0  0  0  0  0  0  0  0  0  0
   -5.5644   -2.0210   -3.8487 N   0  0  0  0  0  0  0  0  0  0  0  0
   -3.4387    1.6100   -0.4326 O   0  0  0  0  0  0  0  0  0  0  0  0
    1.6138    3.1493    2.3515 O   0  0  0  0  0  0  0  0  0  0  0  0
   -6.8320   -3.3761   -5.6809 H   0  0  0  0  0  0  0  0  0  0  0  0
   -7.4275   -4.3796   -4.3806 H   0  0  0  0  0  0  0  0  0  0  0  0
   -6.0717   -4.9130   -5.3458 H   0  0  0  0  0  0  0  0  0  0  0  0
   -4.5191   -4.9833   -2.9859 H   0  0  0  0  0  0  0  0  0  0  0  0
   -2.0832   -1.7346   -0.1843 H   0  0  0  0  0  0  0  0  0  0  0  0
   -0.6556   -0.9148   -0.6094 H   0  0  0  0  0  0  0  0  0  0  0  0
    0.5180    0.1880   -1.2869 H   0  0  0  0  0  0  0  0  0  0  0  0
   -0.7017   -0.5289   -2.3128 H   0  0  0  0  0  0  0  0  0  0  0  0
   -1.5120    3.0205   -1.3599 H   0  0  0  0  0  0  0  0  0  0  0  0
    0.0522    2.3185   -1.6986 H   0  0  0  0  0  0  0  0  0  0  0  0
   -1.1576    2.7638    0.9952 H   0  0  0  0  0  0  0  0  0  0  0  0
    0.1652    3.6576    0.2843 H   0  0  0  0  0  0  0  0  0  0  0  0
    0.5798    0.8105    0.6019 H   0  0  0  0  0  0  0  0  0  0  0  0
    2.1835    0.0521    2.2676 H   0  0  0  0  0  0  0  0  0  0  0  0
    3.8086   -0.0131    0.6709 H   0  0  0  0  0  0  0  0  0  0  0  0
    3.5284    1.6766    0.3238 H   0  0  0  0  0  0  0  0  0  0  0  0
    5.2408    2.3789    1.7315 H   0  0  0  0  0  0  0  0  0  0  0  0
    5.8668    0.7806    1.4031 H   0  0  0  0  0  0  0  0  0  0  0  0
    5.8853    1.1088    5.1116 H   0  0  0  0  0  0  0  0  0  0  0  0
    5.3451    2.6349    4.4546 H   0  0  0  0  0  0  0  0  0  0  0  0
    6.7035    1.8047    3.7336 H   0  0  0  0  0  0  0  0  0  0  0  0
    4.0436   -1.0665    3.2171 H   0  0  0  0  0  0  0  0  0  0  0  0
    5.1947   -0.7766    4.4990 H   0  0  0  0  0  0  0  0  0  0  0  0
    5.7468   -0.9398    2.8489 H   0  0  0  0  0  0  0  0  0  0  0  0
    2.9276    0.8550    4.3116 H   0  0  0  0  0  0  0  0  0  0  0  0
    3.3135    2.4300    3.6601 H   0  0  0  0  0  0  0  0  0  0  0  0
   -4.5725    0.4263   -2.7708 H   0  0  0  0  0  0  0  0  0  0  0  0
   -6.1075   -1.3820   -4.3558 H   0  0  0  0  0  0  0  0  0  0  0  0
  1  2  1  0  0  0  0
  1 27  1  0  0  0  0
  1 28  1  0  0  0  0
  1 29  1  0  0  0  0
  2 24  1  0  0  0  0
  2  3  2  0  0  0  0
  3  4  1  0  0  0  0
  3 30  1  0  0  0  0
  4 20  1  0  0  0  0
  4 21  2  0  0  0  0
  5 21  1  0  0  0  0
  5 31  1  0  0  0  0
  5  6  2  0  0  0  0
  6  7  1  0  0  0  0
  6 19  1  0  0  0  0
  7 22  1  0  0  0  0
  7 25  2  0  0  0  0
  8 22  1  0  0  0  0
  8 32  1  0  0  0  0
  8 33  1  0  0  0  0
  8 34  1  0  0  0  0
  9 22  1  0  0  0  0
  9 10  1  0  0  0  0
  9 35  1  0  0  0  0
  9 36  1  0  0  0  0
 10 23  1  0  0  0  0
 10 37  1  0  0  0  0
 10 38  1  0  0  0  0
 11 23  1  0  0  0  0
 11 12  1  0  0  0  0
 11 26  2  0  0  0  0
 12 13  1  0  0  0  0
 12 18  1  0  0  0  0
 12 40  1  1  0  0  0
 13 14  1  0  0  0  0
 13 41  1  0  0  0  0
 13 42  1  0  0  0  0
 14 15  1  0  0  0  0
 14 43  1  0  0  0  0
 14 44  1  0  0  0  0
 15 16  1  0  0  0  0
 15 17  1  0  0  0  0
 15 18  1  0  0  0  0
 16 45  1  0  0  0  0
 16 46  1  0  0  0  0
 16 47  1  0  0  0  0
 17 48  1  0  0  0  0
 17 49  1  0  0  0  0
 17 50  1  0  0  0  0
 18 51  1  0  0  0  0
 18 52  1  0  0  0  0
 19 53  1  0  0  0  0
 19 20  2  0  0  0  0
 20 24  1  0  0  0  0
 23 39  1  0  0  0  0
 24 54  1  0  0  0  0
M  END
>  <score>
0.43307536840438843

$$$$
Z4095797613
 OpenBabel08202115463D

 40 43  0  0  0  0  0  0  0  0999 V2000
   -1.3860    2.1849   -0.2158 O   0  0  0  0  0  0  0  0  0  0  0  0
    4.6740    2.7015    1.4567 O   0  0  0  0  0  0  0  0  0  0  0  0
    2.5096    0.8996    2.6601 O   0  0  0  0  0  0  0  0  0  0  0  0
   -1.8913   -2.2079   -0.8956 O   0  0  0  0  0  0  0  0  0  0  0  0
   -0.8677    1.0877    0.0155 C   0  0  0  0  0  0  0  0  0  0  0  0
    1.0693    2.1288    1.0476 C   0  0  0  0  0  0  0  0  0  0  0  0
    2.4617    1.7725    1.5153 C   0  0  1  0  0  0  0  0  0  0  0  0
    3.3277    3.0152    1.8357 C   0  0  0  0  0  0  0  0  0  0  0  0
    4.7318    1.3421    0.9785 C   0  0  1  0  0  0  0  0  0  0  0  0
    4.8734    0.4345    2.2167 C   0  0  0  0  0  0  0  0  0  0  0  0
    3.8330    0.8574    3.2569 C   0  0  0  0  0  0  0  0  0  0  0  0
    3.3098    1.0756    0.4116 C   0  0  0  0  0  0  0  0  0  0  0  0
   -1.4871   -0.1617   -0.4778 C   0  0  0  0  0  0  0  0  0  0  0  0
   -2.8452   -1.4272   -1.4354 C   0  0  0  0  0  0  0  0  0  0  0  0
   -3.9898   -2.0937   -2.0988 C   0  0  0  0  0  0  0  0  0  0  0  0
   -5.0289   -1.3298   -2.5957 C   0  0  0  0  0  0  0  0  0  0  0  0
   -6.1020   -1.9433   -3.2230 C   0  0  0  0  0  0  0  0  0  0  0  0
   -6.1354   -3.3194   -3.3468 C   0  0  0  0  0  0  0  0  0  0  0  0
   -5.0933   -4.0858   -2.8485 C   0  0  0  0  0  0  0  0  0  0  0  0
   -4.0233   -3.4739   -2.2231 C   0  0  0  0  0  0  0  0  0  0  0  0
    0.2738    0.9554    0.7184 N   0  0  0  0  0  0  0  0  0  0  0  0
   -0.9760   -1.3444   -0.2614 N   0  0  0  0  0  0  0  0  0  0  0  0
   -2.6591   -0.1636   -1.2079 N   0  0  0  0  0  0  0  0  0  0  0  0
   -4.9589    0.0072   -2.4492 F   0  0  0  0  0  0  0  0  0  0  0  0
   -7.1121   -1.1984   -3.7118 F   0  0  0  0  0  0  0  0  0  0  0  0
    0.5692    0.0673    1.0087 H   0  0  0  0  0  0  0  0  0  0  0  0
    0.5744    2.6711    1.8260 H   0  0  0  0  0  0  0  0  0  0  0  0
    1.1474    2.7454    0.1767 H   0  0  0  0  0  0  0  0  0  0  0  0
    3.2828    3.2335    2.8822 H   0  0  0  0  0  0  0  0  0  0  0  0
    2.9775    3.8595    1.2794 H   0  0  0  0  0  0  0  0  0  0  0  0
    5.4978    1.1661    0.2525 H   0  0  0  0  0  0  0  0  0  0  0  0
    5.8559    0.5375    2.6279 H   0  0  0  0  0  0  0  0  0  0  0  0
    4.7085   -0.5849    1.9365 H   0  0  0  0  0  0  0  0  0  0  0  0
    4.0825    1.8286    3.6304 H   0  0  0  0  0  0  0  0  0  0  0  0
    3.8340    0.1537    4.0628 H   0  0  0  0  0  0  0  0  0  0  0  0
    3.0961    0.0293    0.3447 H   0  0  0  0  0  0  0  0  0  0  0  0
    3.1700    1.5307   -0.5466 H   0  0  0  0  0  0  0  0  0  0  0  0
   -6.9424   -3.7801   -3.8139 H   0  0  0  0  0  0  0  0  0  0  0  0
   -5.1165   -5.1210   -2.9453 H   0  0  0  0  0  0  0  0  0  0  0  0
   -3.2434   -4.0490   -1.8456 H   0  0  0  0  0  0  0  0  0  0  0  0
  5 21  1  0  0  0  0
  5 13  1  0  0  0  0
  5  1  2  0  0  0  0
  6 21  1  0  0  0  0
  6 27  1  0  0  0  0
  6 28  1  0  0  0  0
  7  6  1  6  0  0  0
  7  8  1  0  0  0  0
  7  3  1  0  0  0  0
  7 12  1  0  0  0  0
  8  2  1  0  0  0  0
  8 29  1  0  0  0  0
  8 30  1  0  0  0  0
  9  2  1  0  0  0  0
  9 10  1  0  0  0  0
  9 12  1  0  0  0  0
  9 31  1  6  0  0  0
 10 11  1  0  0  0  0
 10 32  1  0  0  0  0
 10 33  1  0  0  0  0
 11  3  1  0  0  0  0
 11 34  1  0  0  0  0
 11 35  1  0  0  0  0
 12 36  1  0  0  0  0
 12 37  1  0  0  0  0
 13 23  1  0  0  0  0
 13 22  2  0  0  0  0
 14  4  1  0  0  0  0
 14 15  1  0  0  0  0
 14 23  2  0  0  0  0
 15 20  1  0  0  0  0
 15 16  2  0  0  0  0
 16 24  1  0  0  0  0
 16 17  1  0  0  0  0
 17 25  1  0  0  0  0
 17 18  2  0  0  0  0
 18 19  1  0  0  0  0
 18 38  1  0  0  0  0
 19 39  1  0  0  0  0
 19 20  2  0  0  0  0
 20 40  1  0  0  0  0
 21 26  1  0  0  0  0
 22  4  1  0  0  0  0
M  END
>  <score>
0.43309628963470459

$$$$
PV-003330537181
 OpenBabel08202115463D

 47 48  0  0  0  0  0  0  0  0999 V2000
    5.5999   -0.0113    3.5966 C   0  0  0  0  0  0  0  0  0  0  0  0
    5.4113    1.3382    2.8989 C   0  0  0  0  0  0  0  0  0  0  0  0
    5.4752    2.4858    3.8935 C   0  0  0  0  0  0  0  0  0  0  0  0
    4.0885    1.3497    2.1538 C   0  0  0  0  0  0  0  0  0  0  0  0
    2.9555    1.3545    2.9454 C   0  0  0  0  0  0  0  0  0  0  0  0
    1.6998    1.3705    2.3585 C   0  0  0  0  0  0  0  0  0  0  0  0
    1.5808    1.3761    0.9815 C   0  0  0  0  0  0  0  0  0  0  0  0
    0.2033    1.2879    0.4065 C   0  0  0  0  0  0  0  0  0  0  0  0
    0.6753   -1.0831    0.1418 C   0  0  0  0  0  0  0  0  0  0  0  0
   -1.5803   -0.1448   -0.4043 C   0  0  0  0  0  0  0  0  0  0  0  0
   -1.7663    0.0621   -1.8871 C   0  0  0  0  0  0  0  0  0  0  0  0
   -3.2950   -1.6238   -2.8283 C   0  0  0  0  0  0  0  0  0  0  0  0
   -4.6890   -1.9698   -3.1334 C   0  0  0  0  0  0  0  0  0  0  0  0
   -5.6819   -1.0425   -3.2369 C   0  0  0  0  0  0  0  0  0  0  0  0
   -7.0836   -1.5927   -3.4151 C   0  0  0  0  0  0  0  0  0  0  0  0
   -6.8685   -3.0171   -3.9953 C   0  0  0  0  0  0  0  0  0  0  0  0
    2.7169    1.3712    0.1875 C   0  0  0  0  0  0  0  0  0  0  0  0
    3.9688    1.3554    0.7728 C   0  0  0  0  0  0  0  0  0  0  0  0
   -0.5039    2.2953    0.3010 O   0  0  0  0  0  0  0  0  0  0  0  0
   -2.3930   -2.4578   -2.9589 O   0  0  0  0  0  0  0  0  0  0  0  0
   -0.2021    0.0849    0.0251 N   0  0  0  0  0  0  0  0  0  0  0  0
   -3.0670   -0.3652   -2.4056 N   0  0  0  0  0  0  0  0  0  0  0  0
   -5.2348   -3.6200   -3.3998 S   0  0  0  0  0  0  0  0  0  0  0  0
    5.0727    1.3454    0.0012 F   0  0  0  0  0  0  0  0  0  0  0  0
    4.8321    0.0690    4.3375 H   0  0  0  0  0  0  0  0  0  0  0  0
    6.5714   -0.1023    4.0356 H   0  0  0  0  0  0  0  0  0  0  0  0
    5.4300   -0.8324    2.9319 H   0  0  0  0  0  0  0  0  0  0  0  0
    6.2015    1.4622    2.1881 H   0  0  0  0  0  0  0  0  0  0  0  0
    5.5563    3.4125    3.3649 H   0  0  0  0  0  0  0  0  0  0  0  0
    6.3283    2.3611    4.5273 H   0  0  0  0  0  0  0  0  0  0  0  0
    4.5860    2.4916    4.4886 H   0  0  0  0  0  0  0  0  0  0  0  0
    3.0452    1.3462    3.9815 H   0  0  0  0  0  0  0  0  0  0  0  0
    0.8474    1.3782    2.9543 H   0  0  0  0  0  0  0  0  0  0  0  0
    0.8599   -1.2893    1.1754 H   0  0  0  0  0  0  0  0  0  0  0  0
    1.6027   -0.8831   -0.3529 H   0  0  0  0  0  0  0  0  0  0  0  0
    0.2038   -1.9298   -0.3118 H   0  0  0  0  0  0  0  0  0  0  0  0
   -2.2203    0.5341    0.1195 H   0  0  0  0  0  0  0  0  0  0  0  0
   -1.8518   -1.1509   -0.1618 H   0  0  0  0  0  0  0  0  0  0  0  0
   -1.0059   -0.4901   -2.3986 H   0  0  0  0  0  0  0  0  0  0  0  0
   -1.6511    1.1054   -2.0950 H   0  0  0  0  0  0  0  0  0  0  0  0
   -3.7973    0.2870   -2.4467 H   0  0  0  0  0  0  0  0  0  0  0  0
   -5.4904   -0.0211   -3.1963 H   0  0  0  0  0  0  0  0  0  0  0  0
   -7.5940   -1.6398   -2.4758 H   0  0  0  0  0  0  0  0  0  0  0  0
   -7.6442   -0.9872   -4.0962 H   0  0  0  0  0  0  0  0  0  0  0  0
   -7.6445   -3.6706   -3.6551 H   0  0  0  0  0  0  0  0  0  0  0  0
   -6.8759   -2.9803   -5.0647 H   0  0  0  0  0  0  0  0  0  0  0  0
    2.6273    1.3795   -0.8486 H   0  0  0  0  0  0  0  0  0  0  0  0
  1  2  1  0  0  0  0
  1 25  1  0  0  0  0
  1 26  1  0  0  0  0
  1 27  1  0  0  0  0
  2  3  1  0  0  0  0
  2  4  1  0  0  0  0
  2 28  1  0  0  0  0
  3 29  1  0  0  0  0
  3 30  1  0  0  0  0
  3 31  1  0  0  0  0
  4 18  1  0  0  0  0
  4  5  2  0  0  0  0
  5  6  1  0  0  0  0
  5 32  1  0  0  0  0
  6 33  1  0  0  0  0
  6  7  2  0  0  0  0
  7  8  1  0  0  0  0
  7 17  1  0  0  0  0
  8 21  1  0  0  0  0
  8 19  2  0  0  0  0
  9 21  1  0  0  0  0
  9 34  1  0  0  0  0
  9 35  1  0  0  0  0
  9 36  1  0  0  0  0
 10 21  1  0  0  0  0
 10 11  1  0  0  0  0
 10 37  1  0  0  0  0
 10 38  1  0  0  0  0
 11 22  1  0  0  0  0
 11 39  1  0  0  0  0
 11 40  1  0  0  0  0
 12 22  1  0  0  0  0
 12 13  1  0  0  0  0
 12 20  2  0  0  0  0
 13 23  1  0  0  0  0
 13 14  2  0  0  0  0
 14 15  1  0  0  0  0
 14 42  1  0  0  0  0
 15 16  1  0  0  0  0
 15 43  1  0  0  0  0
 15 44  1  0  0  0  0
 16 23  1  0  0  0  0
 16 45  1  0  0  0  0
 16 46  1  0  0  0  0
 17 47  1  0  0  0  0
 17 18  2  0  0  0  0
 18 24  1  0  0  0  0
 22 41  1  0  0  0  0
M  END
>  <score>
0.4332740306854248

$$$$
PV-003285427012
 OpenBabel08202115463D

 57 59  0  0  0  0  0  0  0  0999 V2000
   -5.9884   -2.6346   -4.6942 C   0  0  0  0  0  0  0  0  0  0  0  0
   -5.0969   -3.0587   -3.5414 C   0  0  0  0  0  0  0  0  0  0  0  0
   -5.9241   -3.6334   -2.3891 C   0  0  0  0  0  0  0  0  0  0  0  0
   -4.2139   -1.9156   -3.0790 C   0  0  0  0  0  0  0  0  0  0  0  0
   -3.3695   -2.2602   -1.8618 C   0  0  0  0  0  0  0  0  0  0  0  0
   -2.3062   -1.2024   -1.6277 C   0  0  0  0  0  0  0  0  0  0  0  0
   -1.4597   -1.4730   -0.3991 C   0  0  0  0  0  0  0  0  0  0  0  0
   -0.9683    0.9478   -0.4307 C   0  0  1  0  0  0  0  0  0  0  0  0
   -1.7591    1.8874    0.4505 C   0  0  0  0  0  0  0  0  0  0  0  0
    0.0915    3.0987   -0.3489 C   0  0  0  0  0  0  0  0  0  0  0  0
    0.4168    1.6044   -0.5023 C   0  0  1  0  0  0  0  0  0  0  0  0
    2.5867    1.4443    0.6386 C   0  0  0  0  0  0  0  0  0  0  0  0
    3.3998    0.8632    1.7731 C   0  0  1  0  0  0  0  0  0  0  0  0
    4.9091    0.9003    1.4460 C   0  0  0  0  0  0  0  0  0  0  0  0
    5.4764    1.7987    2.5611 C   0  0  1  0  0  0  0  0  0  0  0  0
    4.3417    2.8408    2.7512 C   0  0  0  0  0  0  0  0  0  0  0  0
    4.4430    1.2873    2.8094 C   0  0  1  0  0  0  0  0  0  0  0  0
    3.9035    0.9802    4.1988 C   0  0  0  0  0  0  0  0  0  0  0  0
    5.4110    1.0114    3.8718 C   0  0  1  0  0  0  0  0  0  0  0  0
   -1.3160   -2.6137    0.0387 O   0  0  0  0  0  0  0  0  0  0  0  0
   -1.2103    3.2075    0.1540 O   0  0  0  0  0  0  0  0  0  0  0  0
    3.1134    2.1778   -0.2100 O   0  0  0  0  0  0  0  0  0  0  0  0
    5.9166   -0.2938    3.7012 O   0  0  0  0  0  0  0  0  0  0  0  0
   -0.8848   -0.3876    0.1694 N   0  0  0  0  0  0  0  0  0  0  0  0
    1.2736    1.1405    0.5787 N   0  0  0  0  0  0  0  0  0  0  0  0
   -6.6726   -3.4239   -4.9258 H   0  0  0  0  0  0  0  0  0  0  0  0
   -5.3850   -2.4228   -5.5521 H   0  0  0  0  0  0  0  0  0  0  0  0
   -6.5360   -1.7579   -4.4175 H   0  0  0  0  0  0  0  0  0  0  0  0
   -4.4569   -3.8388   -3.8972 H   0  0  0  0  0  0  0  0  0  0  0  0
   -6.5698   -2.8743   -1.9996 H   0  0  0  0  0  0  0  0  0  0  0  0
   -5.2686   -3.9751   -1.6155 H   0  0  0  0  0  0  0  0  0  0  0  0
   -6.5123   -4.4527   -2.7465 H   0  0  0  0  0  0  0  0  0  0  0  0
   -4.8386   -1.0822   -2.8337 H   0  0  0  0  0  0  0  0  0  0  0  0
   -3.5589   -1.6470   -3.8813 H   0  0  0  0  0  0  0  0  0  0  0  0
   -2.8947   -3.2059   -2.0205 H   0  0  0  0  0  0  0  0  0  0  0  0
   -4.0023   -2.3182   -1.0009 H   0  0  0  0  0  0  0  0  0  0  0  0
   -2.7889   -0.2552   -1.5068 H   0  0  0  0  0  0  0  0  0  0  0  0
   -1.6643   -1.1696   -2.4831 H   0  0  0  0  0  0  0  0  0  0  0  0
   -0.3957   -0.4980    1.0115 H   0  0  0  0  0  0  0  0  0  0  0  0
   -1.4078    0.8754   -1.4036 H   0  0  0  0  0  0  0  0  0  0  0  0
   -2.8006    1.8471    0.2089 H   0  0  0  0  0  0  0  0  0  0  0  0
   -1.6223    1.6435    1.4833 H   0  0  0  0  0  0  0  0  0  0  0  0
    0.7824    3.5528    0.3303 H   0  0  0  0  0  0  0  0  0  0  0  0
    0.1550    3.5837   -1.3005 H   0  0  0  0  0  0  0  0  0  0  0  0
    0.8889    1.4071   -1.4420 H   0  0  0  0  0  0  0  0  0  0  0  0
    0.8831    0.5882    1.2879 H   0  0  0  0  0  0  0  0  0  0  0  0
    3.0756   -0.1376    1.9688 H   0  0  0  0  0  0  0  0  0  0  0  0
    5.3364   -0.0799    1.4857 H   0  0  0  0  0  0  0  0  0  0  0  0
    5.0839    1.3273    0.4806 H   0  0  0  0  0  0  0  0  0  0  0  0
    6.4338    2.2250    2.3435 H   0  0  0  0  0  0  0  0  0  0  0  0
    4.4992    3.4985    3.5803 H   0  0  0  0  0  0  0  0  0  0  0  0
    4.1374    3.4162    1.8726 H   0  0  0  0  0  0  0  0  0  0  0  0
    5.4304    0.9141    2.6316 H   0  0  0  0  0  0  0  0  0  0  0  0
    3.5410   -0.0255    4.2457 H   0  0  0  0  0  0  0  0  0  0  0  0
    3.7005    1.4766    5.1246 H   0  0  0  0  0  0  0  0  0  0  0  0
    5.9595    1.5087    4.6443 H   0  0  0  0  0  0  0  0  0  0  0  0
    6.6827   -0.4171    4.2664 H   0  0  0  0  0  0  0  0  0  0  0  0
  1  2  1  0  0  0  0
  1 26  1  0  0  0  0
  1 27  1  0  0  0  0
  1 28  1  0  0  0  0
  2  3  1  0  0  0  0
  2  4  1  0  0  0  0
  2 29  1  0  0  0  0
  3 30  1  0  0  0  0
  3 31  1  0  0  0  0
  3 32  1  0  0  0  0
  4  5  1  0  0  0  0
  4 33  1  0  0  0  0
  4 34  1  0  0  0  0
  5  6  1  0  0  0  0
  5 35  1  0  0  0  0
  5 36  1  0  0  0  0
  6  7  1  0  0  0  0
  6 37  1  0  0  0  0
  6 38  1  0  0  0  0
  7 24  1  0  0  0  0
  7 20  2  0  0  0  0
  8 24  1  0  0  0  0
  8  9  1  0  0  0  0
  8 11  1  0  0  0  0
  8 40  1  6  0  0  0
  9 21  1  0  0  0  0
  9 41  1  0  0  0  0
  9 42  1  0  0  0  0
 10 21  1  0  0  0  0
 10 11  1  0  0  0  0
 10 43  1  0  0  0  0
 10 44  1  0  0  0  0
 11 25  1  0  0  0  0
 11 45  1  6  0  0  0
 12 25  1  0  0  0  0
 12 13  1  0  0  0  0
 12 22  2  0  0  0  0
 13 14  1  0  0  0  0
 13 17  1  0  0  0  0
 13 47  1  1  0  0  0
 14 15  1  0  0  0  0
 14 48  1  0  0  0  0
 14 49  1  0  0  0  0
 15 16  1  0  0  0  0
 15 19  1  0  0  0  0
 15 50  1  6  0  0  0
 16 17  1  0  0  0  0
 16 51  1  0  0  0  0
 16 52  1  0  0  0  0
 17 18  1  0  0  0  0
 17 53  1  6  0  0  0
 18 19  1  0  0  0  0
 18 54  1  0  0  0  0
 18 55  1  0  0  0  0
 19 23  1  0  0  0  0
 19 56  1  1  0  0  0
 23 57  1  0  0  0  0
 24 39  1  0  0  0  0
 25 46  1  0  0  0  0
M  END
>  <score>
0.43328511714935303

$$$$
Z4642537120
 OpenBabel08202115463D

 41 43  0  0  0  0  0  0  0  0999 V2000
   -6.6047   -2.4036   -3.3547 C   0  0  0  0  0  0  0  0  0  0  0  0
   -5.4086   -2.5274   -2.4749 C   0  0  0  0  0  0  0  0  0  0  0  0
   -4.9002   -3.5621   -1.7491 C   0  0  0  0  0  0  0  0  0  0  0  0
   -3.5959   -1.9038   -1.4269 C   0  0  0  0  0  0  0  0  0  0  0  0
   -2.4544   -1.1177   -0.9076 C   0  0  0  0  0  0  0  0  0  0  0  0
   -2.2410    0.1934   -1.2892 C   0  0  0  0  0  0  0  0  0  0  0  0
   -1.1629    0.8977   -0.7761 C   0  0  0  0  0  0  0  0  0  0  0  0
   -0.2985    0.2873    0.1129 C   0  0  0  0  0  0  0  0  0  0  0  0
    2.1082    0.8157    0.4068 C   0  0  0  0  0  0  0  0  0  0  0  0
    2.2780    3.2041    0.7109 C   0  0  0  0  0  0  0  0  0  0  0  0
    4.3143    1.7921    0.9659 C   0  0  0  0  0  0  0  0  0  0  0  0
    4.6085    1.5831    2.4522 C   0  0  1  0  0  0  0  0  0  0  0  0
    4.7590    0.1916    2.9825 C   0  0  0  0  0  0  0  0  0  0  0  0
    5.9618    1.0715    2.8470 C   0  0  0  0  0  0  0  0  0  0  0  0
   -0.5126   -1.0277    0.4955 C   0  0  0  0  0  0  0  0  0  0  0  0
   -1.5875   -1.7301   -0.0160 C   0  0  0  0  0  0  0  0  0  0  0  0
   -3.7620   -3.1689   -1.0879 N   0  0  0  0  0  0  0  0  0  0  0  0
    0.7816    1.0468    0.5977 N   0  0  0  0  0  0  0  0  0  0  0  0
    2.8855    1.8680    0.6837 N   0  0  0  0  0  0  0  0  0  0  0  0
   -4.5621   -1.4692   -2.2627 N   0  0  0  0  0  0  0  0  0  0  0  0
    2.5439   -0.2558    0.0182 O   0  0  0  0  0  0  0  0  0  0  0  0
    6.4439    1.5661    4.0085 F   0  0  0  0  0  0  0  0  0  0  0  0
    6.9141    0.8290    1.9384 F   0  0  0  0  0  0  0  0  0  0  0  0
   -6.6461   -1.4159   -3.7642 H   0  0  0  0  0  0  0  0  0  0  0  0
   -7.4892   -2.5894   -2.7820 H   0  0  0  0  0  0  0  0  0  0  0  0
   -6.5376   -3.1165   -4.1498 H   0  0  0  0  0  0  0  0  0  0  0  0
   -5.3149   -4.5147   -1.7022 H   0  0  0  0  0  0  0  0  0  0  0  0
   -2.8891    0.6516   -1.9613 H   0  0  0  0  0  0  0  0  0  0  0  0
   -1.0046    1.8856   -1.0601 H   0  0  0  0  0  0  0  0  0  0  0  0
    0.5516    1.8333    1.1352 H   0  0  0  0  0  0  0  0  0  0  0  0
    1.2765    3.1488    0.3383 H   0  0  0  0  0  0  0  0  0  0  0  0
    2.8502    3.8684    0.0976 H   0  0  0  0  0  0  0  0  0  0  0  0
    2.2644    3.5691    1.7167 H   0  0  0  0  0  0  0  0  0  0  0  0
    4.7751    2.7048    0.6502 H   0  0  0  0  0  0  0  0  0  0  0  0
    4.7294    0.9736    0.4158 H   0  0  0  0  0  0  0  0  0  0  0  0
    4.1626    2.2947    3.1152 H   0  0  0  0  0  0  0  0  0  0  0  0
    4.6332   -0.6460    2.3288 H   0  0  0  0  0  0  0  0  0  0  0  0
    4.3830   -0.0537    3.9538 H   0  0  0  0  0  0  0  0  0  0  0  0
    0.1355   -1.4858    1.1675 H   0  0  0  0  0  0  0  0  0  0  0  0
   -1.7458   -2.7180    0.2680 H   0  0  0  0  0  0  0  0  0  0  0  0
   -4.6433   -0.5704   -2.6446 H   0  0  0  0  0  0  0  0  0  0  0  0
  1  2  1  0  0  0  0
  1 24  1  0  0  0  0
  1 25  1  0  0  0  0
  1 26  1  0  0  0  0
  2 20  1  0  0  0  0
  2  3  2  0  0  0  0
  3 17  1  0  0  0  0
  3 27  1  0  0  0  0
  4  5  1  0  0  0  0
  4 20  1  0  0  0  0
  4 17  2  0  0  0  0
  5 16  1  0  0  0  0
  5  6  2  0  0  0  0
  6  7  1  0  0  0  0
  6 28  1  0  0  0  0
  7 29  1  0  0  0  0
  7  8  2  0  0  0  0
  8 18  1  0  0  0  0
  8 15  1  0  0  0  0
  9 18  1  0  0  0  0
  9 19  1  0  0  0  0
  9 21  2  0  0  0  0
 10 19  1  0  0  0  0
 10 31  1  0  0  0  0
 10 32  1  0  0  0  0
 10 33  1  0  0  0  0
 11 19  1  0  0  0  0
 11 12  1  0  0  0  0
 11 34  1  0  0  0  0
 11 35  1  0  0  0  0
 12 13  1  0  0  0  0
 12 14  1  0  0  0  0
 12 36  1  1  0  0  0
 13 14  1  0  0  0  0
 13 37  1  0  0  0  0
 13 38  1  0  0  0  0
 14 22  1  0  0  0  0
 14 23  1  0  0  0  0
 15 39  1  0  0  0  0
 15 16  2  0  0  0  0
 16 40  1  0  0  0  0
 18 30  1  0  0  0  0
 20 41  1  0  0  0  0
M  END
>  <score>
0.43339771032333374

$$$$
Z4275556944
 OpenBabel08202115463D

 50 52  0  0  0  0  0  0  0  0999 V2000
   -7.4601   -4.4545   -4.5131 C   0  0  0  0  0  0  0  0  0  0  0  0
   -6.3864   -3.8568   -3.6513 C   0  0  0  0  0  0  0  0  0  0  0  0
   -5.1361   -2.3942   -2.5955 C   0  0  0  0  0  0  0  0  0  0  0  0
   -3.0865   -1.3239   -1.5739 C   0  0  0  0  0  0  0  0  0  0  0  0
   -2.4587   -0.0140   -1.1739 C   0  0  0  0  0  0  0  0  0  0  0  0
   -0.7730    1.0952    0.1266 C   0  0  0  0  0  0  0  0  0  0  0  0
    0.4705    0.9171    0.9778 C   0  0  0  0  0  0  0  0  0  0  0  0
    2.7031    0.0439    1.0670 C   0  0  0  0  0  0  0  0  0  0  0  0
    3.2864    1.3254    1.6424 C   0  0  0  0  0  0  0  0  0  0  0  0
    4.5852    1.0426    2.3797 C   0  0  0  0  0  0  0  0  0  0  0  0
    4.7728    3.0342    4.0453 C   0  0  0  0  0  0  0  0  0  0  0  0
    5.3007    4.4137    3.7050 C   0  0  0  0  0  0  0  0  0  0  0  0
    6.2344    2.9512    2.2061 C   0  0  0  0  0  0  0  0  0  0  0  0
    1.0202   -1.0658   -0.2314 C   0  0  0  0  0  0  0  0  0  0  0  0
   -0.2233   -0.8877   -1.0826 C   0  0  0  0  0  0  0  0  0  0  0  0
   -6.1966   -2.4692   -3.4184 C   0  0  0  0  0  0  0  0  0  0  0  0
   -5.4923   -4.5742   -3.0101 N   0  0  0  0  0  0  0  0  0  0  0  0
   -4.3647   -1.3223   -2.1112 N   0  0  0  0  0  0  0  0  0  0  0  0
   -1.2702   -0.2063   -0.3189 N   0  0  0  0  0  0  0  0  0  0  0  0
    1.5174    0.2357    0.2141 N   0  0  0  0  0  0  0  0  0  0  0  0
    5.1887    2.2940    2.8413 N   0  0  0  0  0  0  0  0  0  0  0  0
   -4.6850   -3.6436   -2.3207 O   0  0  0  0  0  0  0  0  0  0  0  0
   -2.5114   -2.3890   -1.4428 O   0  0  0  0  0  0  0  0  0  0  0  0
    6.3898    4.1606    2.7691 O   0  0  0  0  0  0  0  0  0  0  0  0
    6.8930    2.5096    1.3001 O   0  0  0  0  0  0  0  0  0  0  0  0
   -7.3945   -5.5219   -4.4766 H   0  0  0  0  0  0  0  0  0  0  0  0
   -7.3321   -4.1239   -5.5227 H   0  0  0  0  0  0  0  0  0  0  0  0
   -8.4192   -4.1439   -4.1544 H   0  0  0  0  0  0  0  0  0  0  0  0
   -4.7950   -0.4432   -2.1610 H   0  0  0  0  0  0  0  0  0  0  0  0
   -3.1806    0.5645   -0.6361 H   0  0  0  0  0  0  0  0  0  0  0  0
   -2.1660    0.5126   -2.0581 H   0  0  0  0  0  0  0  0  0  0  0  0
   -0.5338    1.6935   -0.7276 H   0  0  0  0  0  0  0  0  0  0  0  0
   -1.5297    1.5838    0.7043 H   0  0  0  0  0  0  0  0  0  0  0  0
    0.2266    0.3331    1.8405 H   0  0  0  0  0  0  0  0  0  0  0  0
    0.8274    1.8776    1.2860 H   0  0  0  0  0  0  0  0  0  0  0  0
    3.4609   -0.4336    0.4817 H   0  0  0  0  0  0  0  0  0  0  0  0
    2.4277   -0.5921    1.8822 H   0  0  0  0  0  0  0  0  0  0  0  0
    2.5828    1.7561    2.3238 H   0  0  0  0  0  0  0  0  0  0  0  0
    3.4780    2.0126    0.8450 H   0  0  0  0  0  0  0  0  0  0  0  0
    5.2648    0.5453    1.7196 H   0  0  0  0  0  0  0  0  0  0  0  0
    4.3832    0.4159    3.2230 H   0  0  0  0  0  0  0  0  0  0  0  0
    3.7093    3.0345    4.1629 H   0  0  0  0  0  0  0  0  0  0  0  0
    5.2298    2.6417    4.9296 H   0  0  0  0  0  0  0  0  0  0  0  0
    4.5384    5.0092    3.2476 H   0  0  0  0  0  0  0  0  0  0  0  0
    5.6621    4.9084    4.5823 H   0  0  0  0  0  0  0  0  0  0  0  0
    0.7810   -1.6640    0.6228 H   0  0  0  0  0  0  0  0  0  0  0  0
    1.7769   -1.5543   -0.8091 H   0  0  0  0  0  0  0  0  0  0  0  0
   -0.5802   -1.8482   -1.3908 H   0  0  0  0  0  0  0  0  0  0  0  0
    0.0206   -0.3036   -1.9453 H   0  0  0  0  0  0  0  0  0  0  0  0
   -6.7569   -1.6812   -3.8015 H   0  0  0  0  0  0  0  0  0  0  0  0
  1  2  1  0  0  0  0
  1 26  1  0  0  0  0
  1 27  1  0  0  0  0
  1 28  1  0  0  0  0
  2 16  1  0  0  0  0
  2 17  2  0  0  0  0
  3 22  1  0  0  0  0
  3 18  1  0  0  0  0
  3 16  2  0  0  0  0
  4 18  1  0  0  0  0
  4  5  1  0  0  0  0
  4 23  2  0  0  0  0
  5 19  1  0  0  0  0
  5 30  1  0  0  0  0
  5 31  1  0  0  0  0
  6 19  1  0  0  0  0
  6  7  1  0  0  0  0
  6 32  1  0  0  0  0
  6 33  1  0  0  0  0
  7 20  1  0  0  0  0
  7 34  1  0  0  0  0
  7 35  1  0  0  0  0
  8 20  1  0  0  0  0
  8  9  1  0  0  0  0
  8 36  1  0  0  0  0
  8 37  1  0  0  0  0
  9 10  1  0  0  0  0
  9 38  1  0  0  0  0
  9 39  1  0  0  0  0
 10 21  1  0  0  0  0
 10 40  1  0  0  0  0
 10 41  1  0  0  0  0
 11 21  1  0  0  0  0
 11 12  1  0  0  0  0
 11 42  1  0  0  0  0
 11 43  1  0  0  0  0
 12 24  1  0  0  0  0
 12 44  1  0  0  0  0
 12 45  1  0  0  0  0
 13 21  1  0  0  0  0
 13 24  1  0  0  0  0
 13 25  2  0  0  0  0
 14 20  1  0  0  0  0
 14 15  1  0  0  0  0
 14 46  1  0  0  0  0
 14 47  1  0  0  0  0
 15 19  1  0  0  0  0
 15 48  1  0  0  0  0
 15 49  1  0  0  0  0
 16 50  1  0  0  0  0
 17 22  1  0  0  0  0
 18 29  1  0  0  0  0
M  END
>  <score>
0.43347382545471191

$$$$
PV-003937740931
 OpenBabel08202115463D

 45 48  0  0  0  0  0  0  0  0999 V2000
    5.8949    1.5151    1.7001 C   0  0  0  0  0  0  0  0  0  0  0  0
    4.6608    1.7487    2.5895 C   0  0  0  0  0  0  0  0  0  0  0  0
    3.6217    2.5065    1.8158 C   0  0  0  0  0  0  0  0  0  0  0  0
    1.6548    2.3922    0.3816 C   0  0  1  0  0  0  0  0  0  0  0  0
    1.2564    2.1023   -1.0348 C   0  0  0  0  0  0  0  0  0  0  0  0
    0.3670    1.6862    0.0947 C   0  0  1  0  0  0  0  0  0  0  0  0
    0.3020    0.2098    0.3983 C   0  0  0  0  0  0  0  0  0  0  0  0
   -1.9242   -0.6668   -0.1854 C   0  0  0  0  0  0  0  0  0  0  0  0
   -2.7399   -1.4090   -1.1724 C   0  0  0  0  0  0  0  0  0  0  0  0
   -2.3251   -2.1000   -2.2453 C   0  0  0  0  0  0  0  0  0  0  0  0
   -4.5036   -2.2719   -2.1954 C   0  0  0  0  0  0  0  0  0  0  0  0
   -5.8013   -2.7554   -2.7178 C   0  0  0  0  0  0  0  0  0  0  0  0
   -7.0294   -2.3565   -2.2775 C   0  0  0  0  0  0  0  0  0  0  0  0
   -7.1672   -4.0294   -4.0834 C   0  0  0  0  0  0  0  0  0  0  0  0
   -5.8806   -3.7112   -3.7603 C   0  0  0  0  0  0  0  0  0  0  0  0
   -4.1569   -1.5141   -1.1418 C   0  0  0  0  0  0  0  0  0  0  0  0
    4.9614    2.2993    3.9931 C   0  0  0  0  0  0  0  0  0  0  0  0
    4.1449    0.5044    3.3319 C   0  0  0  0  0  0  0  0  0  0  0  0
    3.4977    3.7198    1.8479 O   0  0  0  0  0  0  0  0  0  0  0  0
   -2.4406   -0.1864    0.8288 O   0  0  0  0  0  0  0  0  0  0  0  0
   -3.3949   -2.6525   -2.9031 O   0  0  0  0  0  0  0  0  0  0  0  0
    4.5049    1.0680    4.6156 O   0  0  0  0  0  0  0  0  0  0  0  0
    2.8005    1.7662    1.0557 N   0  0  0  0  0  0  0  0  0  0  0  0
   -0.6100   -0.5509   -0.4578 N   0  0  0  0  0  0  0  0  0  0  0  0
   -8.2898   -3.1546   -3.1249 S   0  0  0  0  0  0  0  0  0  0  0  0
    5.6147    0.9356    0.8454 H   0  0  0  0  0  0  0  0  0  0  0  0
    6.6418    0.9897    2.2578 H   0  0  0  0  0  0  0  0  0  0  0  0
    6.2862    2.4578    1.3788 H   0  0  0  0  0  0  0  0  0  0  0  0
    2.9652    0.8060    0.9499 H   0  0  0  0  0  0  0  0  0  0  0  0
    1.5151    3.4186    0.6497 H   0  0  0  0  0  0  0  0  0  0  0  0
    1.7860    1.3633   -1.5990 H   0  0  0  0  0  0  0  0  0  0  0  0
    0.9610    2.9017   -1.6818 H   0  0  0  0  0  0  0  0  0  0  0  0
   -0.5371    2.2409    0.2354 H   0  0  0  0  0  0  0  0  0  0  0  0
   -0.0171    0.0920    1.4128 H   0  0  0  0  0  0  0  0  0  0  0  0
    1.2847   -0.1976    0.2833 H   0  0  0  0  0  0  0  0  0  0  0  0
   -0.2520   -0.9912   -1.2568 H   0  0  0  0  0  0  0  0  0  0  0  0
   -1.3322   -2.2025   -2.5372 H   0  0  0  0  0  0  0  0  0  0  0  0
   -7.1823   -1.6569   -1.5234 H   0  0  0  0  0  0  0  0  0  0  0  0
   -7.4340   -4.7156   -4.8179 H   0  0  0  0  0  0  0  0  0  0  0  0
   -5.0490   -4.1250   -4.2282 H   0  0  0  0  0  0  0  0  0  0  0  0
   -4.7983   -1.0887   -0.4424 H   0  0  0  0  0  0  0  0  0  0  0  0
    4.3766    3.1566    4.2540 H   0  0  0  0  0  0  0  0  0  0  0  0
    5.9971    2.5089    4.1611 H   0  0  0  0  0  0  0  0  0  0  0  0
    3.0945    0.3382    3.2144 H   0  0  0  0  0  0  0  0  0  0  0  0
    4.6775   -0.3918    3.0910 H   0  0  0  0  0  0  0  0  0  0  0  0
  1  2  1  0  0  0  0
  1 26  1  0  0  0  0
  1 27  1  0  0  0  0
  1 28  1  0  0  0  0
  2  3  1  0  0  0  0
  2 17  1  0  0  0  0
  2 18  1  0  0  0  0
  3 23  1  0  0  0  0
  3 19  2  0  0  0  0
  4 23  1  0  0  0  0
  4  5  1  0  0  0  0
  4  6  1  0  0  0  0
  4 30  1  1  0  0  0
  5  6  1  0  0  0  0
  5 31  1  0  0  0  0
  5 32  1  0  0  0  0
  6  7  1  0  0  0  0
  6 33  1  1  0  0  0
  7 24  1  0  0  0  0
  7 34  1  0  0  0  0
  7 35  1  0  0  0  0
  8 24  1  0  0  0  0
  8  9  1  0  0  0  0
  8 20  2  0  0  0  0
  9 16  1  0  0  0  0
  9 10  2  0  0  0  0
 10 21  1  0  0  0  0
 10 37  1  0  0  0  0
 11 21  1  0  0  0  0
 11 12  1  0  0  0  0
 11 16  2  0  0  0  0
 12 15  1  0  0  0  0
 12 13  2  0  0  0  0
 13 25  1  0  0  0  0
 13 38  1  0  0  0  0
 14 25  1  0  0  0  0
 14 39  1  0  0  0  0
 14 15  2  0  0  0  0
 15 40  1  0  0  0  0
 16 41  1  0  0  0  0
 17 22  1  0  0  0  0
 17 42  1  0  0  0  0
 17 43  1  0  0  0  0
 18 22  1  0  0  0  0
 18 44  1  0  0  0  0
 18 45  1  0  0  0  0
 23 29  1  0  0  0  0
 24 36  1  0  0  0  0
M  END
>  <score>
0.43356430530548096

$$$$
PV-003047377605
 OpenBabel08202115463D

 52 53  0  0  0  0  0  0  0  0999 V2000
    6.9156   -0.3364    3.5636 C   0  0  0  0  0  0  0  0  0  0  0  0
    5.1023    0.8808    2.6855 C   0  0  0  0  0  0  0  0  0  0  0  0
    4.7162    2.1762    1.9714 C   0  0  1  0  0  0  0  0  0  0  0  0
    4.8868    3.4651    2.7801 C   0  0  0  0  0  0  0  0  0  0  0  0
    4.9554    2.3308    0.5021 C   0  0  0  0  0  0  0  0  0  0  0  0
    3.5609    2.1550    1.0155 C   0  0  1  0  0  0  0  0  0  0  0  0
    2.6608    0.9846    0.7321 C   0  0  0  0  0  0  0  0  0  0  0  0
    0.9381    2.4110    1.6397 C   0  0  0  0  0  0  0  0  0  0  0  0
    0.3006    0.2604    0.5598 C   0  0  0  0  0  0  0  0  0  0  0  0
   -0.1481    0.4684   -0.8654 C   0  0  0  0  0  0  0  0  0  0  0  0
   -2.5700   -0.0342   -1.1798 C   0  0  0  0  0  0  0  0  0  0  0  0
   -3.5275   -1.1619   -1.4510 C   0  0  0  0  0  0  0  0  0  0  0  0
   -4.9010   -0.7445   -1.9506 C   0  0  0  0  0  0  0  0  0  0  0  0
   -5.7825   -1.9141   -2.2984 C   0  0  0  0  0  0  0  0  0  0  0  0
   -5.7017   -2.7025   -3.4216 C   0  0  0  0  0  0  0  0  0  0  0  0
   -7.0662   -4.6720   -4.2648 C   0  0  0  0  0  0  0  0  0  0  0  0
   -6.9186   -2.3649   -1.6127 C   0  0  0  0  0  0  0  0  0  0  0  0
    6.5130    0.8278    2.8514 O   0  0  0  0  0  0  0  0  0  0  0  0
    3.0548   -0.0959    0.3250 O   0  0  0  0  0  0  0  0  0  0  0  0
   -2.9652    1.1144   -0.9847 O   0  0  0  0  0  0  0  0  0  0  0  0
    1.3569    1.1829    0.9532 N   0  0  0  0  0  0  0  0  0  0  0  0
   -1.2766   -0.4114   -1.1751 N   0  0  0  0  0  0  0  0  0  0  0  0
   -6.7472   -3.5619   -3.3733 N   0  0  0  0  0  0  0  0  0  0  0  0
   -7.5054   -3.3742   -2.2629 N   0  0  0  0  0  0  0  0  0  0  0  0
    6.2980   -0.4572    4.4290 H   0  0  0  0  0  0  0  0  0  0  0  0
    7.9368   -0.2339    3.8660 H   0  0  0  0  0  0  0  0  0  0  0  0
    6.8147   -1.1937    2.9313 H   0  0  0  0  0  0  0  0  0  0  0  0
    4.6299    0.8492    3.6450 H   0  0  0  0  0  0  0  0  0  0  0  0
    4.7812    0.0436    2.1016 H   0  0  0  0  0  0  0  0  0  0  0  0
    5.2321    3.2262    3.7643 H   0  0  0  0  0  0  0  0  0  0  0  0
    3.9467    3.9719    2.8455 H   0  0  0  0  0  0  0  0  0  0  0  0
    5.6008    4.0979    2.2957 H   0  0  0  0  0  0  0  0  0  0  0  0
    5.4255    1.5429   -0.0486 H   0  0  0  0  0  0  0  0  0  0  0  0
    5.2645    3.2761    0.1075 H   0  0  0  0  0  0  0  0  0  0  0  0
    3.0202    3.0783    1.0245 H   0  0  0  0  0  0  0  0  0  0  0  0
    1.2207    3.2612    1.0548 H   0  0  0  0  0  0  0  0  0  0  0  0
    1.4125    2.4635    2.5973 H   0  0  0  0  0  0  0  0  0  0  0  0
   -0.1243    2.4034    1.7673 H   0  0  0  0  0  0  0  0  0  0  0  0
   -0.5387    0.4038    1.2079 H   0  0  0  0  0  0  0  0  0  0  0  0
    0.6640   -0.7407    0.6622 H   0  0  0  0  0  0  0  0  0  0  0  0
    0.6635    0.2478   -1.5269 H   0  0  0  0  0  0  0  0  0  0  0  0
   -0.4485    1.4871   -0.9959 H   0  0  0  0  0  0  0  0  0  0  0  0
   -1.0760   -1.3449   -1.3955 H   0  0  0  0  0  0  0  0  0  0  0  0
   -3.6595   -1.7089   -0.5409 H   0  0  0  0  0  0  0  0  0  0  0  0
   -3.0870   -1.7985   -2.1897 H   0  0  0  0  0  0  0  0  0  0  0  0
   -4.7763   -0.1402   -2.8248 H   0  0  0  0  0  0  0  0  0  0  0  0
   -5.3819   -0.1712   -1.1857 H   0  0  0  0  0  0  0  0  0  0  0  0
   -4.9769   -2.6492   -4.1655 H   0  0  0  0  0  0  0  0  0  0  0  0
   -6.2844   -5.4012   -4.2210 H   0  0  0  0  0  0  0  0  0  0  0  0
   -7.1592   -4.3089   -5.2670 H   0  0  0  0  0  0  0  0  0  0  0  0
   -7.9889   -5.1200   -3.9602 H   0  0  0  0  0  0  0  0  0  0  0  0
   -7.2604   -1.9660   -0.7151 H   0  0  0  0  0  0  0  0  0  0  0  0
  1 18  1  0  0  0  0
  1 25  1  0  0  0  0
  1 26  1  0  0  0  0
  1 27  1  0  0  0  0
  2 18  1  0  0  0  0
  2 28  1  0  0  0  0
  2 29  1  0  0  0  0
  3  2  1  1  0  0  0
  3  4  1  0  0  0  0
  3  5  1  0  0  0  0
  3  6  1  0  0  0  0
  4 30  1  0  0  0  0
  4 31  1  0  0  0  0
  4 32  1  0  0  0  0
  5  6  1  0  0  0  0
  5 33  1  0  0  0  0
  5 34  1  0  0  0  0
  6  7  1  0  0  0  0
  6 35  1  1  0  0  0
  7 21  1  0  0  0  0
  7 19  2  0  0  0  0
  8 21  1  0  0  0  0
  8 36  1  0  0  0  0
  8 37  1  0  0  0  0
  8 38  1  0  0  0  0
  9 21  1  0  0  0  0
  9 10  1  0  0  0  0
  9 39  1  0  0  0  0
  9 40  1  0  0  0  0
 10 22  1  0  0  0  0
 10 41  1  0  0  0  0
 10 42  1  0  0  0  0
 11 22  1  0  0  0  0
 11 12  1  0  0  0  0
 11 20  2  0  0  0  0
 12 13  1  0  0  0  0
 12 44  1  0  0  0  0
 12 45  1  0  0  0  0
 13 14  1  0  0  0  0
 13 46  1  0  0  0  0
 13 47  1  0  0  0  0
 14 17  1  0  0  0  0
 14 15  2  0  0  0  0
 15 23  1  0  0  0  0
 15 48  1  0  0  0  0
 16 23  1  0  0  0  0
 16 49  1  0  0  0  0
 16 50  1  0  0  0  0
 16 51  1  0  0  0  0
 17 52  1  0  0  0  0
 17 24  2  0  0  0  0
 22 43  1  0  0  0  0
 23 24  1  0  0  0  0
M  END
>  <score>
0.43365412950515747

$$$$
PV-002778421007
 OpenBabel08202115463D

 51 53  0  0  0  0  0  0  0  0999 V2000
    3.4470    0.0923   -0.5559 C   0  0  0  0  0  0  0  0  0  0  0  0
    2.9000    0.9613    0.5648 C   0  0  2  0  0  0  0  0  0  0  0  0
   -0.3444    0.6866   -0.9222 C   0  0  1  0  0  0  0  0  0  0  0  0
   -1.1224   -0.6448   -0.6895 C   0  0  0  0  0  0  0  0  0  0  0  0
   -2.4655    0.1110   -0.7970 C   0  0  1  0  0  0  0  0  0  0  0  0
   -4.4412   -1.1640   -0.9133 C   0  0  0  0  0  0  0  0  0  0  0  0
   -5.2929   -1.9929   -1.8298 C   0  0  0  0  0  0  0  0  0  0  0  0
   -5.8812   -1.4146   -2.9387 C   0  0  0  0  0  0  0  0  0  0  0  0
   -6.6634   -2.1819   -3.7879 C   0  0  0  0  0  0  0  0  0  0  0  0
   -6.8592   -3.5241   -3.5226 C   0  0  0  0  0  0  0  0  0  0  0  0
   -6.2692   -4.1042   -2.4105 C   0  0  0  0  0  0  0  0  0  0  0  0
   -5.4894   -3.3390   -1.5639 C   0  0  0  0  0  0  0  0  0  0  0  0
   -1.6748    1.2846   -1.4479 C   0  0  0  0  0  0  0  0  0  0  0  0
    3.7975    0.9505    1.7915 C   0  0  1  0  0  0  0  0  0  0  0  0
    5.2372    1.2185    1.3621 C   0  0  0  0  0  0  0  0  0  0  0  0
    6.1344    1.3196    2.5938 C   0  0  0  0  0  0  0  0  0  0  0  0
    5.5823    2.3142    3.5945 C   0  0  0  0  0  0  0  0  0  0  0  0
    4.1225    1.9884    3.9165 C   0  0  0  0  0  0  0  0  0  0  0  0
    1.5284    0.5402    0.9241 N   0  0  0  0  0  0  0  0  0  0  0  0
    0.2994    1.4739    0.6023 S   0  0  0  0  0  0  0  0  0  0  0  0
    0.6242    2.8072    0.2059 O   0  0  0  0  0  0  0  0  0  0  0  0
   -0.7119    1.2777    1.5727 O   0  0  0  0  0  0  0  0  0  0  0  0
   -3.4287   -0.5052   -1.6531 O   0  0  0  0  0  0  0  0  0  0  0  0
    3.3547    1.9476    2.7034 O   0  0  0  0  0  0  0  0  0  0  0  0
    3.7262   -0.8630   -0.1633 H   0  0  0  0  0  0  0  0  0  0  0  0
    4.3047    0.5650   -0.9871 H   0  0  0  0  0  0  0  0  0  0  0  0
    2.6952   -0.0366   -1.3063 H   0  0  0  0  0  0  0  0  0  0  0  0
    2.8561    1.9675    0.2035 H   0  0  0  0  0  0  0  0  0  0  0  0
    1.3829   -0.3233    1.3643 H   0  0  0  0  0  0  0  0  0  0  0  0
    0.4372    0.6263   -1.6505 H   0  0  0  0  0  0  0  0  0  0  0  0
   -0.9720   -1.3766   -1.4555 H   0  0  0  0  0  0  0  0  0  0  0  0
   -0.9483   -1.0892    0.2682 H   0  0  0  0  0  0  0  0  0  0  0  0
   -2.9212    0.3467    0.1420 H   0  0  0  0  0  0  0  0  0  0  0  0
   -5.0533   -0.4351   -0.4245 H   0  0  0  0  0  0  0  0  0  0  0  0
   -3.9881   -1.7989   -0.1809 H   0  0  0  0  0  0  0  0  0  0  0  0
   -5.7371   -0.4038   -3.1361 H   0  0  0  0  0  0  0  0  0  0  0  0
   -7.1028   -1.7476   -4.6245 H   0  0  0  0  0  0  0  0  0  0  0  0
   -7.4493   -4.0989   -4.1575 H   0  0  0  0  0  0  0  0  0  0  0  0
   -6.4133   -5.1151   -2.2131 H   0  0  0  0  0  0  0  0  0  0  0  0
   -5.0500   -3.7733   -0.7273 H   0  0  0  0  0  0  0  0  0  0  0  0
   -1.9105    2.2465   -1.0430 H   0  0  0  0  0  0  0  0  0  0  0  0
   -1.7457    1.3191   -2.5150 H   0  0  0  0  0  0  0  0  0  0  0  0
    3.7441   -0.0076    2.2647 H   0  0  0  0  0  0  0  0  0  0  0  0
    5.2795    2.1375    0.8156 H   0  0  0  0  0  0  0  0  0  0  0  0
    5.5772    0.4171    0.7400 H   0  0  0  0  0  0  0  0  0  0  0  0
    6.1995    0.3577    3.0577 H   0  0  0  0  0  0  0  0  0  0  0  0
    7.1101    1.6362    2.2895 H   0  0  0  0  0  0  0  0  0  0  0  0
    6.1608    2.2682    4.4935 H   0  0  0  0  0  0  0  0  0  0  0  0
    5.6412    3.2996    3.1818 H   0  0  0  0  0  0  0  0  0  0  0  0
    4.0698    1.0365    4.4024 H   0  0  0  0  0  0  0  0  0  0  0  0
    3.7247    2.7421    4.5635 H   0  0  0  0  0  0  0  0  0  0  0  0
  1  2  1  0  0  0  0
  1 25  1  0  0  0  0
  1 26  1  0  0  0  0
  1 27  1  0  0  0  0
  2 19  1  0  0  0  0
  2 14  1  0  0  0  0
  2 28  1  6  0  0  0
  3  4  1  0  0  0  0
  3 13  1  0  0  0  0
  3 30  1  6  0  0  0
  4  5  1  0  0  0  0
  4 31  1  0  0  0  0
  4 32  1  0  0  0  0
  5 23  1  0  0  0  0
  5 13  1  0  0  0  0
  5 33  1  1  0  0  0
  6 23  1  0  0  0  0
  6  7  1  0  0  0  0
  6 34  1  0  0  0  0
  6 35  1  0  0  0  0
  7 12  1  0  0  0  0
  7  8  2  0  0  0  0
  8  9  1  0  0  0  0
  8 36  1  0  0  0  0
  9 37  1  0  0  0  0
  9 10  2  0  0  0  0
 10 11  1  0  0  0  0
 10 38  1  0  0  0  0
 11 39  1  0  0  0  0
 11 12  2  0  0  0  0
 12 40  1  0  0  0  0
 13 41  1  0  0  0  0
 13 42  1  0  0  0  0
 14 15  1  0  0  0  0
 14 24  1  0  0  0  0
 14 43  1  1  0  0  0
 15 16  1  0  0  0  0
 15 44  1  0  0  0  0
 15 45  1  0  0  0  0
 16 17  1  0  0  0  0
 16 46  1  0  0  0  0
 16 47  1  0  0  0  0
 17 18  1  0  0  0  0
 17 48  1  0  0  0  0
 17 49  1  0  0  0  0
 18 24  1  0  0  0  0
 18 50  1  0  0  0  0
 18 51  1  0  0  0  0
 19 29  1  0  0  0  0
 20 19  1  0  0  0  0
 20  3  1  0  0  0  0
 20 21  2  0  0  0  0
 20 22  2  0  0  0  0
M  END
>  <score>
0.43392330408096313

$$$$
PV-003159491050
 OpenBabel08202115463D

 56 58  0  0  0  0  0  0  0  0999 V2000
   -8.0102   -2.3890   -4.1231 C   0  0  0  0  0  0  0  0  0  0  0  0
   -6.6393   -2.0175   -3.5915 C   0  0  0  0  0  0  0  0  0  0  0  0
   -6.1651   -2.9199   -2.4668 C   0  0  0  0  0  0  0  0  0  0  0  0
   -4.9512   -2.3861   -1.7543 C   0  0  0  0  0  0  0  0  0  0  0  0
   -4.3663   -1.1887   -2.1203 C   0  0  0  0  0  0  0  0  0  0  0  0
   -3.2509   -0.7546   -1.4282 C   0  0  0  0  0  0  0  0  0  0  0  0
   -2.5473    0.5328   -1.7600 C   0  0  0  0  0  0  0  0  0  0  0  0
   -0.6668    1.9590   -1.1197 C   0  0  1  0  0  0  0  0  0  0  0  0
   -0.1326    2.7600    0.0258 C   0  0  0  0  0  0  0  0  0  0  0  0
    0.7625    1.8006   -0.6942 C   0  0  1  0  0  0  0  0  0  0  0  0
    1.3983    0.6038   -0.0218 C   0  0  0  0  0  0  0  0  0  0  0  0
    2.7819    1.6235    1.6924 C   0  0  0  0  0  0  0  0  0  0  0  0
    4.2116    1.8900    2.2193 C   0  0  0  0  0  0  0  0  0  0  0  0
    4.6935    0.9327    3.3524 C   0  0  0  0  0  0  0  0  0  0  0  0
    5.5153   -1.2464    3.9931 C   0  0  0  0  0  0  0  0  0  0  0  0
    5.4660   -0.5971    1.6544 C   0  0  0  0  0  0  0  0  0  0  0  0
    4.5947    3.3385    2.2824 C   0  0  0  0  0  0  0  0  0  0  0  0
    5.1747    2.4548    1.2229 C   0  0  0  0  0  0  0  0  0  0  0  0
   -2.7668   -1.5329   -0.3950 C   0  0  0  0  0  0  0  0  0  0  0  0
   -3.4166   -2.7169   -0.0929 C   0  0  0  0  0  0  0  0  0  0  0  0
   -2.8205    1.1701   -2.7754 O   0  0  0  0  0  0  0  0  0  0  0  0
    1.7909    1.9995    2.3170 O   0  0  0  0  0  0  0  0  0  0  0  0
   -1.6260    0.8951   -0.8628 N   0  0  0  0  0  0  0  0  0  0  0  0
    2.7042    0.9675    0.5311 N   0  0  0  0  0  0  0  0  0  0  0  0
    4.8004   -0.4684    2.9622 N   0  0  0  0  0  0  0  0  0  0  0  0
   -4.4961   -3.1521   -0.7582 N   0  0  0  0  0  0  0  0  0  0  0  0
   -8.7317   -2.3096   -3.3369 H   0  0  0  0  0  0  0  0  0  0  0  0
   -7.9903   -3.3946   -4.4883 H   0  0  0  0  0  0  0  0  0  0  0  0
   -8.2758   -1.7251   -4.9190 H   0  0  0  0  0  0  0  0  0  0  0  0
   -6.6779   -1.0124   -3.2266 H   0  0  0  0  0  0  0  0  0  0  0  0
   -5.9357   -2.0788   -4.3953 H   0  0  0  0  0  0  0  0  0  0  0  0
   -5.9249   -3.8784   -2.8774 H   0  0  0  0  0  0  0  0  0  0  0  0
   -6.9584   -3.0244   -1.7564 H   0  0  0  0  0  0  0  0  0  0  0  0
   -4.7578   -0.6249   -2.9016 H   0  0  0  0  0  0  0  0  0  0  0  0
   -1.5950    0.4281   -0.0018 H   0  0  0  0  0  0  0  0  0  0  0  0
   -0.8103    2.5065   -2.0277 H   0  0  0  0  0  0  0  0  0  0  0  0
   -0.4535    2.5454    1.0237 H   0  0  0  0  0  0  0  0  0  0  0  0
    0.0164    3.8140   -0.0826 H   0  0  0  0  0  0  0  0  0  0  0  0
    1.4424    2.2944   -1.3566 H   0  0  0  0  0  0  0  0  0  0  0  0
    1.5247   -0.1790   -0.7402 H   0  0  0  0  0  0  0  0  0  0  0  0
    0.7625    0.2639    0.7688 H   0  0  0  0  0  0  0  0  0  0  0  0
    3.5231    0.7293    0.0483 H   0  0  0  0  0  0  0  0  0  0  0  0
    3.9990    1.0006    4.1636 H   0  0  0  0  0  0  0  0  0  0  0  0
    5.6576    1.2621    3.6792 H   0  0  0  0  0  0  0  0  0  0  0  0
    5.3514   -2.2911    3.8298 H   0  0  0  0  0  0  0  0  0  0  0  0
    5.1498   -0.9754    4.9615 H   0  0  0  0  0  0  0  0  0  0  0  0
    6.5630   -1.0367    3.9352 H   0  0  0  0  0  0  0  0  0  0  0  0
    6.3921   -0.0615    1.6707 H   0  0  0  0  0  0  0  0  0  0  0  0
    4.8339   -0.1930    0.8915 H   0  0  0  0  0  0  0  0  0  0  0  0
    5.6554   -1.6304    1.4511 H   0  0  0  0  0  0  0  0  0  0  0  0
    5.2129    3.6942    3.0801 H   0  0  0  0  0  0  0  0  0  0  0  0
    3.8823    4.0923    2.0194 H   0  0  0  0  0  0  0  0  0  0  0  0
    4.8773    2.5779    0.2025 H   0  0  0  0  0  0  0  0  0  0  0  0
    6.2080    2.1797    1.2631 H   0  0  0  0  0  0  0  0  0  0  0  0
   -1.9299   -1.2349    0.1457 H   0  0  0  0  0  0  0  0  0  0  0  0
   -3.0496   -3.2973    0.6882 H   0  0  0  0  0  0  0  0  0  0  0  0
  1  2  1  0  0  0  0
  1 27  1  0  0  0  0
  1 28  1  0  0  0  0
  1 29  1  0  0  0  0
  2  3  1  0  0  0  0
  2 30  1  0  0  0  0
  2 31  1  0  0  0  0
  3  4  1  0  0  0  0
  3 32  1  0  0  0  0
  3 33  1  0  0  0  0
  4 26  1  0  0  0  0
  4  5  2  0  0  0  0
  5  6  1  0  0  0  0
  5 34  1  0  0  0  0
  6  7  1  0  0  0  0
  6 19  2  0  0  0  0
  7 23  1  0  0  0  0
  7 21  2  0  0  0  0
  8 23  1  0  0  0  0
  8  9  1  0  0  0  0
  8 10  1  0  0  0  0
  8 36  1  6  0  0  0
  9 10  1  0  0  0  0
  9 37  1  0  0  0  0
  9 38  1  0  0  0  0
 10 11  1  0  0  0  0
 10 39  1  6  0  0  0
 11 24  1  0  0  0  0
 11 40  1  0  0  0  0
 11 41  1  0  0  0  0
 12 24  1  0  0  0  0
 12 13  1  0  0  0  0
 12 22  2  0  0  0  0
 13 14  1  0  0  0  0
 13 17  1  0  0  0  0
 13 18  1  0  0  0  0
 14 25  1  0  0  0  0
 14 43  1  0  0  0  0
 14 44  1  0  0  0  0
 15 25  1  0  0  0  0
 15 45  1  0  0  0  0
 15 46  1  0  0  0  0
 15 47  1  0  0  0  0
 16 25  1  0  0  0  0
 16 48  1  0  0  0  0
 16 49  1  0  0  0  0
 16 50  1  0  0  0  0
 17 18  1  0  0  0  0
 17 51  1  0  0  0  0
 17 52  1  0  0  0  0
 18 53  1  0  0  0  0
 18 54  1  0  0  0  0
 19 20  1  0  0  0  0
 19 55  1  0  0  0  0
 20 56  1  0  0  0  0
 20 26  2  0  0  0  0
 23 35  1  0  0  0  0
 24 42  1  0  0  0  0
M  END
>  <score>
0.43407368659973145

$$$$
Z3391123668
 OpenBabel08202115463D

 60 62  0  0  0  0  0  0  0  0999 V2000
    4.3367    0.5693    0.3021 C   0  0  0  0  0  0  0  0  0  0  0  0
    3.5133    0.8420    1.5503 C   0  0  0  0  0  0  0  0  0  0  0  0
    3.2768   -0.4333    2.3464 C   0  0  0  0  0  0  0  0  0  0  0  0
    2.2027    1.5310    1.2060 C   0  0  0  0  0  0  0  0  0  0  0  0
    1.1968    0.6113    0.5377 C   0  0  0  0  0  0  0  0  0  0  0  0
   -0.0567    1.3662    0.1705 C   0  0  0  0  0  0  0  0  0  0  0  0
   -2.2483    1.4031   -0.8676 C   0  0  0  0  0  0  0  0  0  0  0  0
   -3.4691    0.5988   -0.4451 C   0  0  0  0  0  0  0  0  0  0  0  0
   -3.4050   -0.7884   -1.0318 C   0  0  0  0  0  0  0  0  0  0  0  0
   -4.5502   -1.4727   -1.4362 C   0  0  0  0  0  0  0  0  0  0  0  0
   -4.4645   -2.7437   -1.9876 C   0  0  0  0  0  0  0  0  0  0  0  0
   -5.7172   -3.4805   -2.3990 C   0  0  0  0  0  0  0  0  0  0  0  0
   -6.6066   -2.5945   -3.2561 C   0  0  0  0  0  0  0  0  0  0  0  0
   -7.9724   -3.1819   -3.4917 C   0  0  0  0  0  0  0  0  0  0  0  0
   -3.2187   -3.3329   -2.1582 C   0  0  0  0  0  0  0  0  0  0  0  0
   -2.0697   -2.6636   -1.7594 C   0  0  0  0  0  0  0  0  0  0  0  0
   -2.1548   -1.3940   -1.1873 C   0  0  0  0  0  0  0  0  0  0  0  0
   -0.8937   -0.7370   -0.6893 C   0  0  0  0  0  0  0  0  0  0  0  0
    4.5432    2.9978    1.6814 C   0  0  0  0  0  0  0  0  0  0  0  0
    5.3919    3.9236    2.5168 C   0  0  0  0  0  0  0  0  0  0  0  0
    6.3916    2.1108    3.5703 C   0  0  0  0  0  0  0  0  0  0  0  0
    5.5591    1.1441    2.7559 C   0  0  0  0  0  0  0  0  0  0  0  0
   -0.1711    2.5634    0.4300 O   0  0  0  0  0  0  0  0  0  0  0  0
   -8.3266   -4.2410   -3.0210 O   0  0  0  0  0  0  0  0  0  0  0  0
   -8.7208   -2.4246   -4.2538 O   0  0  0  0  0  0  0  0  0  0  0  0
    6.6323    3.3162    2.8605 O   0  0  0  0  0  0  0  0  0  0  0  0
   -1.0458    0.6899   -0.4497 N   0  0  0  0  0  0  0  0  0  0  0  0
    4.2881    1.7610    2.4037 N   0  0  0  0  0  0  0  0  0  0  0  0
    3.7985   -0.0931   -0.3432 H   0  0  0  0  0  0  0  0  0  0  0  0
    5.2666    0.1186    0.5800 H   0  0  0  0  0  0  0  0  0  0  0  0
    4.5248    1.4902   -0.2091 H   0  0  0  0  0  0  0  0  0  0  0  0
    4.2168   -0.8885    2.5791 H   0  0  0  0  0  0  0  0  0  0  0  0
    2.6864   -1.1114    1.7662 H   0  0  0  0  0  0  0  0  0  0  0  0
    2.7611   -0.1968    3.2535 H   0  0  0  0  0  0  0  0  0  0  0  0
    2.4111    2.3446    0.5431 H   0  0  0  0  0  0  0  0  0  0  0  0
    1.7701    1.9079    2.1091 H   0  0  0  0  0  0  0  0  0  0  0  0
    0.9445   -0.1811    1.2110 H   0  0  0  0  0  0  0  0  0  0  0  0
    1.6319    0.2011   -0.3496 H   0  0  0  0  0  0  0  0  0  0  0  0
   -2.2454    1.5197   -1.9313 H   0  0  0  0  0  0  0  0  0  0  0  0
   -2.2744    2.3665   -0.4028 H   0  0  0  0  0  0  0  0  0  0  0  0
   -4.3538    1.0895   -0.7935 H   0  0  0  0  0  0  0  0  0  0  0  0
   -3.4954    0.5304    0.6224 H   0  0  0  0  0  0  0  0  0  0  0  0
   -5.4819   -1.0247   -1.3231 H   0  0  0  0  0  0  0  0  0  0  0  0
   -6.2554   -3.7743   -1.5221 H   0  0  0  0  0  0  0  0  0  0  0  0
   -5.4446   -4.3505   -2.9591 H   0  0  0  0  0  0  0  0  0  0  0  0
   -6.1306   -2.4486   -4.2032 H   0  0  0  0  0  0  0  0  0  0  0  0
   -6.7218   -1.6508   -2.7650 H   0  0  0  0  0  0  0  0  0  0  0  0
   -8.6109   -2.6852   -5.1712 H   0  0  0  0  0  0  0  0  0  0  0  0
   -3.1462   -4.2781   -2.5859 H   0  0  0  0  0  0  0  0  0  0  0  0
   -1.1399   -3.1114   -1.8878 H   0  0  0  0  0  0  0  0  0  0  0  0
   -0.6053   -1.2067    0.2278 H   0  0  0  0  0  0  0  0  0  0  0  0
   -0.1253   -0.8788   -1.4202 H   0  0  0  0  0  0  0  0  0  0  0  0
    5.0564    2.7749    0.7693 H   0  0  0  0  0  0  0  0  0  0  0  0
    3.6120    3.4760    1.4596 H   0  0  0  0  0  0  0  0  0  0  0  0
    5.5834    4.8177    1.9612 H   0  0  0  0  0  0  0  0  0  0  0  0
    4.8625    4.1673    3.4142 H   0  0  0  0  0  0  0  0  0  0  0  0
    7.3295    1.6512    3.8030 H   0  0  0  0  0  0  0  0  0  0  0  0
    5.8713    2.3393    4.4769 H   0  0  0  0  0  0  0  0  0  0  0  0
    6.0879    0.8860    1.8623 H   0  0  0  0  0  0  0  0  0  0  0  0
    5.3773    0.2604    3.3312 H   0  0  0  0  0  0  0  0  0  0  0  0
  1  2  1  0  0  0  0
  1 29  1  0  0  0  0
  1 30  1  0  0  0  0
  1 31  1  0  0  0  0
  2  3  1  0  0  0  0
  2  4  1  0  0  0  0
  2 28  1  0  0  0  0
  3 32  1  0  0  0  0
  3 33  1  0  0  0  0
  3 34  1  0  0  0  0
  4  5  1  0  0  0  0
  4 35  1  0  0  0  0
  4 36  1  0  0  0  0
  5  6  1  0  0  0  0
  5 37  1  0  0  0  0
  5 38  1  0  0  0  0
  6 27  1  0  0  0  0
  6 23  2  0  0  0  0
  7 27  1  0  0  0  0
  7  8  1  0  0  0  0
  7 39  1  0  0  0  0
  7 40  1  0  0  0  0
  8  9  1  0  0  0  0
  8 41  1  0  0  0  0
  8 42  1  0  0  0  0
  9 17  1  0  0  0  0
  9 10  2  0  0  0  0
 10 11  1  0  0  0  0
 10 43  1  0  0  0  0
 11 12  1  0  0  0  0
 11 15  2  0  0  0  0
 12 13  1  0  0  0  0
 12 44  1  0  0  0  0
 12 45  1  0  0  0  0
 13 14  1  0  0  0  0
 13 46  1  0  0  0  0
 13 47  1  0  0  0  0
 14 25  1  0  0  0  0
 14 24  2  0  0  0  0
 15 16  1  0  0  0  0
 15 49  1  0  0  0  0
 16 50  1  0  0  0  0
 16 17  2  0  0  0  0
 17 18  1  0  0  0  0
 18 27  1  0  0  0  0
 18 51  1  0  0  0  0
 18 52  1  0  0  0  0
 19 28  1  0  0  0  0
 19 20  1  0  0  0  0
 19 53  1  0  0  0  0
 19 54  1  0  0  0  0
 20 26  1  0  0  0  0
 20 55  1  0  0  0  0
 20 56  1  0  0  0  0
 21 26  1  0  0  0  0
 21 22  1  0  0  0  0
 21 57  1  0  0  0  0
 21 58  1  0  0  0  0
 22 28  1  0  0  0  0
 22 59  1  0  0  0  0
 22 60  1  0  0  0  0
 25 48  1  0  0  0  0
M  END
>  <score>
0.43422871828079224

$$$$
PV-003152900025
 OpenBabel08202115463D

 51 53  0  0  0  0  0  0  0  0999 V2000
   -6.6955   -1.7129   -3.3126 C   0  0  0  0  0  0  0  0  0  0  0  0
   -5.4025   -1.8904   -2.5408 C   0  0  0  0  0  0  0  0  0  0  0  0
   -3.4092   -0.8407   -1.6453 C   0  0  0  0  0  0  0  0  0  0  0  0
   -2.7817    0.5344   -1.6073 C   0  0  0  0  0  0  0  0  0  0  0  0
   -1.1379    1.9975   -0.2950 C   0  0  0  0  0  0  0  0  0  0  0  0
   -0.3910    0.9552    0.5647 C   0  0  2  0  0  0  0  0  0  0  0  0
    1.1510    1.1467    0.7901 C   0  0  1  0  0  0  0  0  0  0  0  0
    3.2833    0.7545    1.9456 C   0  0  0  0  0  0  0  0  0  0  0  0
    4.7743    1.0895    2.0748 C   0  0  0  0  0  0  0  0  0  0  0  0
    5.3460    1.6202    0.7567 C   0  0  0  0  0  0  0  0  0  0  0  0
    5.5355   -0.1816    2.4568 C   0  0  0  0  0  0  0  0  0  0  0  0
    4.9935    2.1349    3.1303 C   0  0  0  0  0  0  0  0  0  0  0  0
    0.6397    0.3146   -0.3876 C   0  0  1  0  0  0  0  0  0  0  0  0
   -0.7644   -0.3174   -0.2770 C   0  0  0  0  0  0  0  0  0  0  0  0
   -2.4447   -1.9650   -2.1014 C   0  0  0  0  0  0  0  0  0  0  0  0
   -2.5717   -2.6529   -0.6930 C   0  0  0  0  0  0  0  0  0  0  0  0
   -3.5362   -1.5286   -0.2369 C   0  0  0  0  0  0  0  0  0  0  0  0
   -5.0767   -2.9836   -2.0857 O   0  0  0  0  0  0  0  0  0  0  0  0
   -3.2476    1.4589   -2.2710 O   0  0  0  0  0  0  0  0  0  0  0  0
    2.7478   -0.0414    2.7125 O   0  0  0  0  0  0  0  0  0  0  0  0
    6.3815    2.2413    3.4177 O   0  0  0  0  0  0  0  0  0  0  0  0
   -4.6543   -0.7854   -2.3944 N   0  0  0  0  0  0  0  0  0  0  0  0
   -1.6843    0.7176   -0.8151 N   0  0  0  0  0  0  0  0  0  0  0  0
    2.5799    1.3594    0.9660 N   0  0  0  0  0  0  0  0  0  0  0  0
   -6.8435   -2.5523   -3.9595 H   0  0  0  0  0  0  0  0  0  0  0  0
   -6.6421   -0.8179   -3.8965 H   0  0  0  0  0  0  0  0  0  0  0  0
   -7.5135   -1.6433   -2.6263 H   0  0  0  0  0  0  0  0  0  0  0  0
   -4.9479    0.0603   -2.7932 H   0  0  0  0  0  0  0  0  0  0  0  0
   -1.4334    2.1487    0.7222 H   0  0  0  0  0  0  0  0  0  0  0  0
   -1.4731    2.8210   -0.8904 H   0  0  0  0  0  0  0  0  0  0  0  0
   -0.9417    0.3507    1.2549 H   0  0  0  0  0  0  0  0  0  0  0  0
    0.6815    1.0643    1.7481 H   0  0  0  0  0  0  0  0  0  0  0  0
    3.0474    1.9630    0.3516 H   0  0  0  0  0  0  0  0  0  0  0  0
    4.8860    2.5567    0.5192 H   0  0  0  0  0  0  0  0  0  0  0  0
    5.1488    0.9177   -0.0258 H   0  0  0  0  0  0  0  0  0  0  0  0
    6.4026    1.7571    0.8559 H   0  0  0  0  0  0  0  0  0  0  0  0
    5.0105   -1.0372    2.0865 H   0  0  0  0  0  0  0  0  0  0  0  0
    5.6125   -0.2443    3.5222 H   0  0  0  0  0  0  0  0  0  0  0  0
    6.5158   -0.1521    2.0290 H   0  0  0  0  0  0  0  0  0  0  0  0
    4.4664    1.8584    4.0195 H   0  0  0  0  0  0  0  0  0  0  0  0
    4.6299    3.0776    2.7782 H   0  0  0  0  0  0  0  0  0  0  0  0
    6.8685    1.6078    2.8855 H   0  0  0  0  0  0  0  0  0  0  0  0
    1.3443   -0.1034   -1.0787 H   0  0  0  0  0  0  0  0  0  0  0  0
   -0.9999   -0.5383    0.7432 H   0  0  0  0  0  0  0  0  0  0  0  0
   -0.8222   -1.2134   -0.8589 H   0  0  0  0  0  0  0  0  0  0  0  0
   -2.8173   -2.5572   -2.9109 H   0  0  0  0  0  0  0  0  0  0  0  0
   -1.4570   -1.6248   -2.3328 H   0  0  0  0  0  0  0  0  0  0  0  0
   -3.0158   -3.6260   -0.7200 H   0  0  0  0  0  0  0  0  0  0  0  0
   -1.6555   -2.6936   -0.1418 H   0  0  0  0  0  0  0  0  0  0  0  0
   -3.1635   -0.9365    0.5726 H   0  0  0  0  0  0  0  0  0  0  0  0
   -4.5239   -1.8689   -0.0055 H   0  0  0  0  0  0  0  0  0  0  0  0
  1  2  1  0  0  0  0
  1 25  1  0  0  0  0
  1 26  1  0  0  0  0
  1 27  1  0  0  0  0
  2 22  1  0  0  0  0
  2 18  2  0  0  0  0
  3 22  1  0  0  0  0
  3  4  1  0  0  0  0
  3 15  1  0  0  0  0
  3 17  1  0  0  0  0
  4 23  1  0  0  0  0
  4 19  2  0  0  0  0
  5 23  1  0  0  0  0
  5  6  1  0  0  0  0
  5 29  1  0  0  0  0
  5 30  1  0  0  0  0
  6  7  1  0  0  0  0
  6 13  1  0  0  0  0
  6 31  1  1  0  0  0
  7 24  1  0  0  0  0
  7 13  1  0  0  0  0
  7 32  1  1  0  0  0
  8 24  1  0  0  0  0
  8  9  1  0  0  0  0
  8 20  2  0  0  0  0
  9 10  1  0  0  0  0
  9 11  1  0  0  0  0
  9 12  1  0  0  0  0
 10 34  1  0  0  0  0
 10 35  1  0  0  0  0
 10 36  1  0  0  0  0
 11 37  1  0  0  0  0
 11 38  1  0  0  0  0
 11 39  1  0  0  0  0
 12 21  1  0  0  0  0
 12 40  1  0  0  0  0
 12 41  1  0  0  0  0
 13 14  1  0  0  0  0
 13 43  1  6  0  0  0
 14 23  1  0  0  0  0
 14 44  1  0  0  0  0
 14 45  1  0  0  0  0
 15 16  1  0  0  0  0
 15 46  1  0  0  0  0
 15 47  1  0  0  0  0
 16 17  1  0  0  0  0
 16 48  1  0  0  0  0
 16 49  1  0  0  0  0
 17 50  1  0  0  0  0
 17 51  1  0  0  0  0
 21 42  1  0  0  0  0
 22 28  1  0  0  0  0
 24 33  1  0  0  0  0
M  END
>  <score>
0.4343220591545105

$$$$
PV-004131719366
 OpenBabel08202115463D

 64 66  0  0  0  0  0  0  0  0999 V2000
   -7.5586   -2.7276   -2.0046 C   0  0  0  0  0  0  0  0  0  0  0  0
   -6.9415   -3.2524   -3.2772 C   0  0  0  0  0  0  0  0  0  0  0  0
   -5.6445   -2.5579   -3.7183 C   0  0  0  0  0  0  0  0  0  0  0  0
   -5.9954   -1.2550   -4.4466 C   0  0  0  0  0  0  0  0  0  0  0  0
   -4.8177   -3.4624   -4.6396 C   0  0  0  0  0  0  0  0  0  0  0  0
   -4.8303   -2.2102   -2.4828 C   0  0  0  0  0  0  0  0  0  0  0  0
   -3.5991   -1.3614   -2.7335 C   0  0  0  0  0  0  0  0  0  0  0  0
   -1.8188   -0.0221   -1.6604 C   0  0  2  0  0  0  0  0  0  0  0  0
   -0.6523   -0.7017   -0.8540 C   0  0  0  0  0  0  0  0  0  0  0  0
   -0.6350    0.5008    0.1237 C   0  0  1  0  0  0  0  0  0  0  0  0
    0.6580    1.2837    0.1140 C   0  0  0  0  0  0  0  0  0  0  0  0
    2.9160    1.0849    0.9824 C   0  0  0  0  0  0  0  0  0  0  0  0
    3.8681    0.3160    1.8590 C   0  0  0  0  0  0  0  0  0  0  0  0
    4.7805    1.2242    2.6983 C   0  0  2  0  0  0  0  0  0  0  0  0
    5.6541    2.0815    1.7839 C   0  0  0  0  0  0  0  0  0  0  0  0
    6.5658    2.9722    2.6293 C   0  0  0  0  0  0  0  0  0  0  0  0
    6.3103    2.7567    4.1097 C   0  0  2  0  0  0  0  0  0  0  0  0
    6.5828    1.2913    4.4514 C   0  0  0  0  0  0  0  0  0  0  0  0
    5.6899    0.3719    3.5950 C   0  0  0  0  0  0  0  0  0  0  0  0
    4.8478    3.0572    4.4148 C   0  0  0  0  0  0  0  0  0  0  0  0
    3.9328    2.1371    3.5952 C   0  0  0  0  0  0  0  0  0  0  0  0
   -1.8015    1.1805   -0.6826 C   0  0  0  0  0  0  0  0  0  0  0  0
   -3.1350   -1.2296   -3.8629 O   0  0  0  0  0  0  0  0  0  0  0  0
    3.2557    2.1210    0.4351 O   0  0  0  0  0  0  0  0  0  0  0  0
   -3.0642   -0.7763   -1.6510 N   0  0  0  0  0  0  0  0  0  0  0  0
    1.6950    0.5588    0.8504 N   0  0  0  0  0  0  0  0  0  0  0  0
   -8.4321   -3.2990   -1.7692 H   0  0  0  0  0  0  0  0  0  0  0  0
   -7.8292   -1.7009   -2.1366 H   0  0  0  0  0  0  0  0  0  0  0  0
   -6.8522   -2.8108   -1.2052 H   0  0  0  0  0  0  0  0  0  0  0  0
   -7.6593   -3.1393   -4.0626 H   0  0  0  0  0  0  0  0  0  0  0  0
   -6.7274   -4.2911   -3.1358 H   0  0  0  0  0  0  0  0  0  0  0  0
   -6.6547   -1.4680   -5.2621 H   0  0  0  0  0  0  0  0  0  0  0  0
   -5.1004   -0.8034   -4.8205 H   0  0  0  0  0  0  0  0  0  0  0  0
   -6.4762   -0.5843   -3.7655 H   0  0  0  0  0  0  0  0  0  0  0  0
   -5.4090   -3.6891   -5.5022 H   0  0  0  0  0  0  0  0  0  0  0  0
   -4.5634   -4.3664   -4.1269 H   0  0  0  0  0  0  0  0  0  0  0  0
   -3.9230   -2.9563   -4.9365 H   0  0  0  0  0  0  0  0  0  0  0  0
   -4.5133   -3.1254   -2.0281 H   0  0  0  0  0  0  0  0  0  0  0  0
   -5.4666   -1.6774   -1.8074 H   0  0  0  0  0  0  0  0  0  0  0  0
   -3.5423   -0.8620   -0.7998 H   0  0  0  0  0  0  0  0  0  0  0  0
   -1.5623    0.2314   -2.6677 H   0  0  0  0  0  0  0  0  0  0  0  0
   -0.9197   -1.6321   -0.3982 H   0  0  0  0  0  0  0  0  0  0  0  0
    0.2520   -0.8244   -1.4125 H   0  0  0  0  0  0  0  0  0  0  0  0
   -0.8914    0.2473    1.1311 H   0  0  0  0  0  0  0  0  0  0  0  0
    0.4977    2.2359    0.5751 H   0  0  0  0  0  0  0  0  0  0  0  0
    0.9771    1.4258   -0.8974 H   0  0  0  0  0  0  0  0  0  0  0  0
    1.4932   -0.3142    1.2474 H   0  0  0  0  0  0  0  0  0  0  0  0
    4.4815   -0.3012    1.2364 H   0  0  0  0  0  0  0  0  0  0  0  0
    3.2980   -0.3004    2.5223 H   0  0  0  0  0  0  0  0  0  0  0  0
    6.2523    1.4458    1.1652 H   0  0  0  0  0  0  0  0  0  0  0  0
    5.0298    2.6946    1.1681 H   0  0  0  0  0  0  0  0  0  0  0  0
    6.3772    3.9971    2.3868 H   0  0  0  0  0  0  0  0  0  0  0  0
    7.5864    2.7356    2.4118 H   0  0  0  0  0  0  0  0  0  0  0  0
    6.9454    3.3926    4.6904 H   0  0  0  0  0  0  0  0  0  0  0  0
    6.3716    1.1245    5.4870 H   0  0  0  0  0  0  0  0  0  0  0  0
    7.6108    1.0678    4.2560 H   0  0  0  0  0  0  0  0  0  0  0  0
    6.3063   -0.2540    2.9841 H   0  0  0  0  0  0  0  0  0  0  0  0
    5.0875   -0.2368    4.2364 H   0  0  0  0  0  0  0  0  0  0  0  0
    4.6376    4.0764    4.1661 H   0  0  0  0  0  0  0  0  0  0  0  0
    4.6651    2.8989    5.4572 H   0  0  0  0  0  0  0  0  0  0  0  0
    3.3463    1.5369    4.2591 H   0  0  0  0  0  0  0  0  0  0  0  0
    3.2855    2.7320    2.9854 H   0  0  0  0  0  0  0  0  0  0  0  0
   -2.7058    1.3032   -0.1241 H   0  0  0  0  0  0  0  0  0  0  0  0
   -1.5341    2.1110   -1.1383 H   0  0  0  0  0  0  0  0  0  0  0  0
  1  2  1  0  0  0  0
  1 27  1  0  0  0  0
  1 28  1  0  0  0  0
  1 29  1  0  0  0  0
  2  3  1  0  0  0  0
  2 30  1  0  0  0  0
  2 31  1  0  0  0  0
  3  4  1  0  0  0  0
  3  5  1  0  0  0  0
  3  6  1  0  0  0  0
  4 32  1  0  0  0  0
  4 33  1  0  0  0  0
  4 34  1  0  0  0  0
  5 35  1  0  0  0  0
  5 36  1  0  0  0  0
  5 37  1  0  0  0  0
  6  7  1  0  0  0  0
  6 38  1  0  0  0  0
  6 39  1  0  0  0  0
  7 25  1  0  0  0  0
  7 23  2  0  0  0  0
  8 25  1  0  0  0  0
  8  9  1  0  0  0  0
  8 22  1  0  0  0  0
  8 41  1  6  0  0  0
  9 10  1  0  0  0  0
  9 42  1  0  0  0  0
  9 43  1  0  0  0  0
 10 11  1  0  0  0  0
 10 22  1  0  0  0  0
 10 44  1  1  0  0  0
 11 26  1  0  0  0  0
 11 45  1  0  0  0  0
 11 46  1  0  0  0  0
 12 26  1  0  0  0  0
 12 13  1  0  0  0  0
 12 24  2  0  0  0  0
 13 48  1  0  0  0  0
 13 49  1  0  0  0  0
 14 13  1  6  0  0  0
 14 15  1  0  0  0  0
 14 19  1  0  0  0  0
 14 21  1  0  0  0  0
 15 16  1  0  0  0  0
 15 50  1  0  0  0  0
 15 51  1  0  0  0  0
 16 17  1  0  0  0  0
 16 52  1  0  0  0  0
 16 53  1  0  0  0  0
 17 18  1  0  0  0  0
 17 20  1  0  0  0  0
 17 54  1  1  0  0  0
 18 19  1  0  0  0  0
 18 55  1  0  0  0  0
 18 56  1  0  0  0  0
 19 57  1  0  0  0  0
 19 58  1  0  0  0  0
 20 21  1  0  0  0  0
 20 59  1  0  0  0  0
 20 60  1  0  0  0  0
 21 61  1  0  0  0  0
 21 62  1  0  0  0  0
 22 63  1  0  0  0  0
 22 64  1  0  0  0  0
 25 40  1  0  0  0  0
 26 47  1  0  0  0  0
M  END
>  <score>
0.4343903660774231

$$$$
PV-001151698751
 OpenBabel08202115463D

 59 60  0  0  0  0  0  0  0  0999 V2000
    4.9744    0.6726   -0.3308 C   0  0  0  0  0  0  0  0  0  0  0  0
    3.1461    1.7196    0.8509 C   0  0  0  0  0  0  0  0  0  0  0  0
    2.0779    0.7865    0.3426 C   0  0  0  0  0  0  0  0  0  0  0  0
   -0.3306    0.3808    0.1376 C   0  0  2  0  0  0  0  0  0  0  0  0
   -0.9471    0.8820   -1.2043 C   0  0  0  0  0  0  0  0  0  0  0  0
   -2.3628    0.8132   -0.5897 C   0  0  2  0  0  0  0  0  0  0  0  0
   -2.9991   -1.5433   -0.0794 C   0  0  0  0  0  0  0  0  0  0  0  0
   -3.9094   -0.3932   -2.0402 C   0  0  0  0  0  0  0  0  0  0  0  0
   -4.7172   -1.6455   -2.2529 C   0  0  0  0  0  0  0  0  0  0  0  0
   -5.6965   -1.5330   -3.4100 C   0  0  0  0  0  0  0  0  0  0  0  0
   -6.4886   -2.7758   -3.6270 C   0  0  0  0  0  0  0  0  0  0  0  0
   -7.2148   -4.7773   -3.4805 C   0  0  0  0  0  0  0  0  0  0  0  0
   -7.9813   -4.1590   -4.4217 C   0  0  0  0  0  0  0  0  0  0  0  0
   -1.6787    0.7504    0.8082 C   0  0  0  0  0  0  0  0  0  0  0  0
    5.4058    1.9087    1.7098 C   0  0  0  0  0  0  0  0  0  0  0  0
    5.4027    1.6460    3.2205 C   0  0  0  0  0  0  0  0  0  0  0  0
    3.9598    1.5916    3.7363 C   0  0  0  0  0  0  0  0  0  0  0  0
    6.1603    2.7714    3.9345 C   0  0  0  0  0  0  0  0  0  0  0  0
    6.0974    0.3096    3.5076 C   0  0  0  0  0  0  0  0  0  0  0  0
    4.4450    1.0502    0.9846 N   0  0  0  0  0  0  0  0  0  0  0  0
    0.8127    1.1497    0.6063 N   0  0  0  0  0  0  0  0  0  0  0  0
   -3.1269   -0.3823   -0.9495 N   0  0  0  0  0  0  0  0  0  0  0  0
   -6.2782   -3.9065   -2.9788 N   0  0  0  0  0  0  0  0  0  0  0  0
   -7.5047   -2.8758   -4.5094 N   0  0  0  0  0  0  0  0  0  0  0  0
    2.3636   -0.2303   -0.2681 O   0  0  0  0  0  0  0  0  0  0  0  0
   -3.9746    0.5424   -2.8204 O   0  0  0  0  0  0  0  0  0  0  0  0
    4.2626    0.0558   -0.8386 H   0  0  0  0  0  0  0  0  0  0  0  0
    5.8891    0.1319   -0.2050 H   0  0  0  0  0  0  0  0  0  0  0  0
    5.1575    1.5548   -0.9079 H   0  0  0  0  0  0  0  0  0  0  0  0
    3.2470    2.5346    0.1650 H   0  0  0  0  0  0  0  0  0  0  0  0
    2.8503    2.0934    1.8088 H   0  0  0  0  0  0  0  0  0  0  0  0
    0.6534    1.9609    1.1326 H   0  0  0  0  0  0  0  0  0  0  0  0
   -0.0922   -0.6622    0.1581 H   0  0  0  0  0  0  0  0  0  0  0  0
   -0.7972    0.2158   -2.0281 H   0  0  0  0  0  0  0  0  0  0  0  0
   -0.6407    1.8687   -1.4826 H   0  0  0  0  0  0  0  0  0  0  0  0
   -2.9632    1.6836   -0.7539 H   0  0  0  0  0  0  0  0  0  0  0  0
   -3.2012   -2.4328   -0.6387 H   0  0  0  0  0  0  0  0  0  0  0  0
   -3.6978   -1.4629    0.7271 H   0  0  0  0  0  0  0  0  0  0  0  0
   -2.0045   -1.5870    0.3128 H   0  0  0  0  0  0  0  0  0  0  0  0
   -5.2683   -1.8512   -1.3592 H   0  0  0  0  0  0  0  0  0  0  0  0
   -4.0456   -2.4542   -2.4526 H   0  0  0  0  0  0  0  0  0  0  0  0
   -5.1460   -1.3197   -4.3025 H   0  0  0  0  0  0  0  0  0  0  0  0
   -6.3728   -0.7291   -3.2069 H   0  0  0  0  0  0  0  0  0  0  0  0
   -7.3233   -5.7681   -3.1837 H   0  0  0  0  0  0  0  0  0  0  0  0
   -8.7665   -4.5745   -4.9626 H   0  0  0  0  0  0  0  0  0  0  0  0
   -7.8380   -2.1678   -5.0994 H   0  0  0  0  0  0  0  0  0  0  0  0
   -1.6647    1.6849    1.3291 H   0  0  0  0  0  0  0  0  0  0  0  0
   -2.0692   -0.0109    1.4508 H   0  0  0  0  0  0  0  0  0  0  0  0
    5.1476    2.9329    1.5391 H   0  0  0  0  0  0  0  0  0  0  0  0
    6.3885    1.7201    1.3307 H   0  0  0  0  0  0  0  0  0  0  0  0
    3.4882    2.5391    3.5788 H   0  0  0  0  0  0  0  0  0  0  0  0
    3.9634    1.3647    4.7820 H   0  0  0  0  0  0  0  0  0  0  0  0
    3.4208    0.8331    3.2081 H   0  0  0  0  0  0  0  0  0  0  0  0
    6.0777    2.6418    4.9934 H   0  0  0  0  0  0  0  0  0  0  0  0
    5.7402    3.7156    3.6571 H   0  0  0  0  0  0  0  0  0  0  0  0
    7.1917    2.7424    3.6512 H   0  0  0  0  0  0  0  0  0  0  0  0
    5.4547   -0.4961    3.2199 H   0  0  0  0  0  0  0  0  0  0  0  0
    6.3133    0.2374    4.5531 H   0  0  0  0  0  0  0  0  0  0  0  0
    7.0090    0.2547    2.9500 H   0  0  0  0  0  0  0  0  0  0  0  0
  1 20  1  0  0  0  0
  1 27  1  0  0  0  0
  1 28  1  0  0  0  0
  1 29  1  0  0  0  0
  2 20  1  0  0  0  0
  2  3  1  0  0  0  0
  2 30  1  0  0  0  0
  2 31  1  0  0  0  0
  3 21  1  0  0  0  0
  3 25  2  0  0  0  0
  4 21  1  0  0  0  0
  4  5  1  0  0  0  0
  4 14  1  0  0  0  0
  4 33  1  1  0  0  0
  5  6  1  0  0  0  0
  5 34  1  0  0  0  0
  5 35  1  0  0  0  0
  6 22  1  0  0  0  0
  6 14  1  0  0  0  0
  6 36  1  6  0  0  0
  7 22  1  0  0  0  0
  7 37  1  0  0  0  0
  7 38  1  0  0  0  0
  7 39  1  0  0  0  0
  8 22  1  0  0  0  0
  8  9  1  0  0  0  0
  8 26  2  0  0  0  0
  9 10  1  0  0  0  0
  9 40  1  0  0  0  0
  9 41  1  0  0  0  0
 10 11  1  0  0  0  0
 10 42  1  0  0  0  0
 10 43  1  0  0  0  0
 11 24  1  0  0  0  0
 11 23  2  0  0  0  0
 12 23  1  0  0  0  0
 12 44  1  0  0  0  0
 12 13  2  0  0  0  0
 13 24  1  0  0  0  0
 13 45  1  0  0  0  0
 14 47  1  0  0  0  0
 14 48  1  0  0  0  0
 15 20  1  0  0  0  0
 15 16  1  0  0  0  0
 15 49  1  0  0  0  0
 15 50  1  0  0  0  0
 16 17  1  0  0  0  0
 16 18  1  0  0  0  0
 16 19  1  0  0  0  0
 17 51  1  0  0  0  0
 17 52  1  0  0  0  0
 17 53  1  0  0  0  0
 18 54  1  0  0  0  0
 18 55  1  0  0  0  0
 18 56  1  0  0  0  0
 19 57  1  0  0  0  0
 19 58  1  0  0  0  0
 19 59  1  0  0  0  0
 21 32  1  0  0  0  0
 24 46  1  0  0  0  0
M  END
>  <score>
0.4344673752784729

$$$$
PV-003941151984
 OpenBabel08202115463D

 53 54  0  0  0  0  0  0  0  0999 V2000
    4.2068    2.6559    3.3598 C   0  0  0  0  0  0  0  0  0  0  0  0
    4.2737    2.1559    2.0167 C   0  0  1  0  0  0  0  0  0  0  0  0
    3.0016    2.5210    1.2766 C   0  0  0  0  0  0  0  0  0  0  0  0
    0.6666    1.8166    0.8042 C   0  0  0  0  0  0  0  0  0  0  0  0
    0.1602    0.6619   -0.0241 C   0  0  2  0  0  0  0  0  0  0  0  0
   -1.2217    1.0491   -0.6565 C   0  0  0  0  0  0  0  0  0  0  0  0
   -1.8894   -0.1269   -1.3606 C   0  0  0  0  0  0  0  0  0  0  0  0
   -2.0359   -1.3564   -0.4056 C   0  0  1  0  0  0  0  0  0  0  0  0
   -2.6202   -2.5220   -1.1729 C   0  0  0  0  0  0  0  0  0  0  0  0
   -4.7682   -3.1639   -2.2370 C   0  0  0  0  0  0  0  0  0  0  0  0
   -6.2136   -2.7574   -2.4490 C   0  0  2  0  0  0  0  0  0  0  0  0
   -6.5450   -2.5287   -3.8364 C   0  0  0  0  0  0  0  0  0  0  0  0
   -0.6549   -1.7502    0.1495 C   0  0  0  0  0  0  0  0  0  0  0  0
    0.0192   -0.5734    0.8690 C   0  0  0  0  0  0  0  0  0  0  0  0
    5.4812    2.7158    1.3026 C   0  0  0  0  0  0  0  0  0  0  0  0
    6.5709    1.7559    1.7123 C   0  0  0  0  0  0  0  0  0  0  0  0
    5.8540    0.4246    1.7925 C   0  0  0  0  0  0  0  0  0  0  0  0
    2.9096    3.5731    0.6455 O   0  0  0  0  0  0  0  0  0  0  0  0
   -4.3306   -4.2073   -2.6933 O   0  0  0  0  0  0  0  0  0  0  0  0
   -6.5495   -1.5827   -1.7169 O   0  0  0  0  0  0  0  0  0  0  0  0
    4.4653    0.7294    2.0181 O   0  0  0  0  0  0  0  0  0  0  0  0
    2.0023    1.6285    1.3594 N   0  0  0  0  0  0  0  0  0  0  0  0
   -4.0248   -2.3127   -1.5284 N   0  0  0  0  0  0  0  0  0  0  0  0
   -5.4870   -1.6303   -3.9714 F   0  0  0  0  0  0  0  0  0  0  0  0
   -7.8139   -1.9889   -3.7643 F   0  0  0  0  0  0  0  0  0  0  0  0
    4.0838    3.7187    3.3396 H   0  0  0  0  0  0  0  0  0  0  0  0
    5.1113    2.4116    3.8766 H   0  0  0  0  0  0  0  0  0  0  0  0
    3.3753    2.2105    3.8649 H   0  0  0  0  0  0  0  0  0  0  0  0
    2.1837    0.7872    1.8281 H   0  0  0  0  0  0  0  0  0  0  0  0
    0.6830    2.6890    0.1849 H   0  0  0  0  0  0  0  0  0  0  0  0
   -0.0135    1.9677    1.6163 H   0  0  0  0  0  0  0  0  0  0  0  0
    0.8580    0.4510   -0.8074 H   0  0  0  0  0  0  0  0  0  0  0  0
   -1.8697    1.3968    0.1208 H   0  0  0  0  0  0  0  0  0  0  0  0
   -1.0661    1.8323   -1.3687 H   0  0  0  0  0  0  0  0  0  0  0  0
   -1.2950   -0.4104   -2.2039 H   0  0  0  0  0  0  0  0  0  0  0  0
   -2.8612    0.1730   -1.6931 H   0  0  0  0  0  0  0  0  0  0  0  0
   -2.6854   -1.1012    0.4055 H   0  0  0  0  0  0  0  0  0  0  0  0
   -2.5469   -3.4018   -0.5683 H   0  0  0  0  0  0  0  0  0  0  0  0
   -2.0557   -2.6583   -2.0717 H   0  0  0  0  0  0  0  0  0  0  0  0
   -4.4511   -1.4849   -1.2227 H   0  0  0  0  0  0  0  0  0  0  0  0
   -6.8274   -3.5627   -2.1030 H   0  0  0  0  0  0  0  0  0  0  0  0
   -6.8208   -0.8921   -2.3260 H   0  0  0  0  0  0  0  0  0  0  0  0
   -6.4643   -3.4043   -4.4462 H   0  0  0  0  0  0  0  0  0  0  0  0
   -0.7757   -2.5573    0.8414 H   0  0  0  0  0  0  0  0  0  0  0  0
   -0.0314   -2.0650   -0.6611 H   0  0  0  0  0  0  0  0  0  0  0  0
   -0.5691   -0.3125    1.7238 H   0  0  0  0  0  0  0  0  0  0  0  0
    0.9942   -0.8794    1.1864 H   0  0  0  0  0  0  0  0  0  0  0  0
    5.6982    3.7110    1.6305 H   0  0  0  0  0  0  0  0  0  0  0  0
    5.3403    2.7120    0.2419 H   0  0  0  0  0  0  0  0  0  0  0  0
    7.3508    1.7271    0.9803 H   0  0  0  0  0  0  0  0  0  0  0  0
    6.9824    2.0268    2.6622 H   0  0  0  0  0  0  0  0  0  0  0  0
    5.9711   -0.1154    0.8762 H   0  0  0  0  0  0  0  0  0  0  0  0
    6.2421   -0.1574    2.6022 H   0  0  0  0  0  0  0  0  0  0  0  0
  1  2  1  0  0  0  0
  1 26  1  0  0  0  0
  1 27  1  0  0  0  0
  1 28  1  0  0  0  0
  2  3  1  6  0  0  0
  2 15  1  0  0  0  0
  2 21  1  0  0  0  0
  3 22  1  0  0  0  0
  3 18  2  0  0  0  0
  4 22  1  0  0  0  0
  4  5  1  0  0  0  0
  4 30  1  0  0  0  0
  4 31  1  0  0  0  0
  5  6  1  0  0  0  0
  5 14  1  0  0  0  0
  5 32  1  6  0  0  0
  6  7  1  0  0  0  0
  6 33  1  0  0  0  0
  6 34  1  0  0  0  0
  7  8  1  0  0  0  0
  7 35  1  0  0  0  0
  7 36  1  0  0  0  0
  8  9  1  0  0  0  0
  8 13  1  0  0  0  0
  8 37  1  1  0  0  0
  9 23  1  0  0  0  0
  9 38  1  0  0  0  0
  9 39  1  0  0  0  0
 10 23  1  0  0  0  0
 10 11  1  0  0  0  0
 10 19  2  0  0  0  0
 11 20  1  0  0  0  0
 11 12  1  0  0  0  0
 11 41  1  1  0  0  0
 12 24  1  0  0  0  0
 12 25  1  0  0  0  0
 12 43  1  0  0  0  0
 13 14  1  0  0  0  0
 13 44  1  0  0  0  0
 13 45  1  0  0  0  0
 14 46  1  0  0  0  0
 14 47  1  0  0  0  0
 15 16  1  0  0  0  0
 15 48  1  0  0  0  0
 15 49  1  0  0  0  0
 16 17  1  0  0  0  0
 16 50  1  0  0  0  0
 16 51  1  0  0  0  0
 17 21  1  0  0  0  0
 17 52  1  0  0  0  0
 17 53  1  0  0  0  0
 20 42  1  0  0  0  0
 22 29  1  0  0  0  0
 23 40  1  0  0  0  0
M  END
>  <score>
0.43450289964675903

$$$$
PV-004016633500
 OpenBabel08202115463D

 47 49  0  0  0  0  0  0  0  0999 V2000
   -8.4806   -1.5655   -3.7289 C   0  0  0  0  0  0  0  0  0  0  0  0
   -6.9985   -1.6995   -3.4702 C   0  0  0  0  0  0  0  0  0  0  0  0
   -6.3496   -1.6025   -2.2622 C   0  0  0  0  0  0  0  0  0  0  0  0
   -3.9415   -1.9490   -1.5525 C   0  0  0  0  0  0  0  0  0  0  0  0
   -3.1106   -0.6989   -1.4037 C   0  0  0  0  0  0  0  0  0  0  0  0
   -0.9362    0.1118   -0.5248 C   0  0  0  0  0  0  0  0  0  0  0  0
   -1.0745    1.3795   -1.0578 C   0  0  0  0  0  0  0  0  0  0  0  0
   -0.0602    2.3113   -0.9017 C   0  0  0  0  0  0  0  0  0  0  0  0
    1.0917    1.9711   -0.2178 C   0  0  0  0  0  0  0  0  0  0  0  0
    1.2303    0.6996    0.3167 C   0  0  0  0  0  0  0  0  0  0  0  0
    3.3942    1.1392    1.4788 C   0  0  0  0  0  0  0  0  0  0  0  0
    4.5580    0.4211    2.1338 C   0  0  1  0  0  0  0  0  0  0  0  0
    5.8798    1.0849    1.7611 C   0  0  0  0  0  0  0  0  0  0  0  0
    6.7382    1.1443    3.0305 C   0  0  1  0  0  0  0  0  0  0  0  0
    5.6685    1.4246    4.1388 C   0  0  1  0  0  0  0  0  0  0  0  0
    4.4813    0.5501    3.6950 C   0  0  0  0  0  0  0  0  0  0  0  0
    0.2190   -0.2296    0.1611 C   0  0  0  0  0  0  0  0  0  0  0  0
   -5.9903   -1.9495   -4.4110 C   0  0  0  0  0  0  0  0  0  0  0  0
   -5.0313   -1.7893   -2.5093 N   0  0  0  0  0  0  0  0  0  0  0  0
   -1.9677   -0.8320   -0.6784 N   0  0  0  0  0  0  0  0  0  0  0  0
    2.4068    0.3531    1.0213 N   0  0  0  0  0  0  0  0  0  0  0  0
   -4.7901   -2.0111   -3.8268 N   0  0  0  0  0  0  0  0  0  0  0  0
   -3.4606    0.3648   -1.9132 O   0  0  0  0  0  0  0  0  0  0  0  0
    3.3736    2.3655    1.3818 O   0  0  0  0  0  0  0  0  0  0  0  0
    7.4094   -0.0954    3.2603 O   0  0  0  0  0  0  0  0  0  0  0  0
    6.1410    1.0335    5.4135 F   0  0  0  0  0  0  0  0  0  0  0  0
   -8.6846   -0.6018   -4.1466 H   0  0  0  0  0  0  0  0  0  0  0  0
   -9.0145   -1.6751   -2.8081 H   0  0  0  0  0  0  0  0  0  0  0  0
   -8.7927   -2.3247   -4.4152 H   0  0  0  0  0  0  0  0  0  0  0  0
   -6.7871   -1.4207   -1.3364 H   0  0  0  0  0  0  0  0  0  0  0  0
   -3.3073   -2.7439   -1.8854 H   0  0  0  0  0  0  0  0  0  0  0  0
   -4.3572   -2.1992   -0.5988 H   0  0  0  0  0  0  0  0  0  0  0  0
   -1.8492   -1.6839   -0.2087 H   0  0  0  0  0  0  0  0  0  0  0  0
   -1.9396    1.6342   -1.5758 H   0  0  0  0  0  0  0  0  0  0  0  0
   -0.1660    3.2664   -1.2992 H   0  0  0  0  0  0  0  0  0  0  0  0
    1.8544    2.6690   -0.1042 H   0  0  0  0  0  0  0  0  0  0  0  0
    2.5177   -0.6036    1.2026 H   0  0  0  0  0  0  0  0  0  0  0  0
    4.5549   -0.6074    1.8387 H   0  0  0  0  0  0  0  0  0  0  0  0
    5.7013    2.0740    1.3940 H   0  0  0  0  0  0  0  0  0  0  0  0
    6.3785    0.5095    1.0093 H   0  0  0  0  0  0  0  0  0  0  0  0
    7.4570    1.9350    2.9762 H   0  0  0  0  0  0  0  0  0  0  0  0
    8.3585    0.0402    3.2109 H   0  0  0  0  0  0  0  0  0  0  0  0
    5.3980    2.4596    4.1603 H   0  0  0  0  0  0  0  0  0  0  0  0
    4.5500   -0.4176    4.1465 H   0  0  0  0  0  0  0  0  0  0  0  0
    3.5592    1.0123    3.9796 H   0  0  0  0  0  0  0  0  0  0  0  0
    0.3247   -1.1848    0.5587 H   0  0  0  0  0  0  0  0  0  0  0  0
   -6.1548   -2.0711   -5.4307 H   0  0  0  0  0  0  0  0  0  0  0  0
  1  2  1  0  0  0  0
  1 27  1  0  0  0  0
  1 28  1  0  0  0  0
  1 29  1  0  0  0  0
  2 18  1  0  0  0  0
  2  3  2  0  0  0  0
  3 19  1  0  0  0  0
  3 30  1  0  0  0  0
  4 19  1  0  0  0  0
  4  5  1  0  0  0  0
  4 31  1  0  0  0  0
  4 32  1  0  0  0  0
  5 20  1  0  0  0  0
  5 23  2  0  0  0  0
  6 20  1  0  0  0  0
  6 17  1  0  0  0  0
  6  7  2  0  0  0  0
  7  8  1  0  0  0  0
  7 34  1  0  0  0  0
  8 35  1  0  0  0  0
  8  9  2  0  0  0  0
  9 10  1  0  0  0  0
  9 36  1  0  0  0  0
 10 21  1  0  0  0  0
 10 17  2  0  0  0  0
 11 21  1  0  0  0  0
 11 12  1  0  0  0  0
 11 24  2  0  0  0  0
 12 13  1  0  0  0  0
 12 16  1  0  0  0  0
 12 38  1  6  0  0  0
 13 14  1  0  0  0  0
 13 39  1  0  0  0  0
 13 40  1  0  0  0  0
 14 25  1  0  0  0  0
 14 15  1  0  0  0  0
 14 41  1  6  0  0  0
 15 26  1  0  0  0  0
 15 16  1  0  0  0  0
 15 43  1  1  0  0  0
 16 44  1  0  0  0  0
 16 45  1  0  0  0  0
 17 46  1  0  0  0  0
 18 47  1  0  0  0  0
 18 22  2  0  0  0  0
 19 22  1  0  0  0  0
 20 33  1  0  0  0  0
 21 37  1  0  0  0  0
 25 42  1  0  0  0  0
M  END
>  <score>
0.43466424942016602

$$$$
Z4029837472
 OpenBabel08202115463D

 54 57  0  0  0  0  0  0  0  0999 V2000
    4.3037    1.1568   -0.3707 F   0  0  0  0  0  0  0  0  0  0  0  0
    3.8739    0.9503    0.9522 C   0  0  1  0  0  0  0  0  0  0  0  0
    2.7344   -0.0138    0.9348 C   0  0  0  0  0  0  0  0  0  0  0  0
    0.5387   -0.6840    0.2235 C   0  0  0  0  0  0  0  0  0  0  0  0
   -0.6614   -0.3377   -0.6381 C   0  0  0  0  0  0  0  0  0  0  0  0
   -2.3349    1.3109   -1.1330 C   0  0  0  0  0  0  0  0  0  0  0  0
   -3.3895    0.2712   -1.1800 C   0  0  0  0  0  0  0  0  0  0  0  0
   -4.8224   -1.1850   -1.6148 C   0  0  0  0  0  0  0  0  0  0  0  0
   -5.6414   -2.1124   -2.4255 C   0  0  0  0  0  0  0  0  0  0  0  0
   -6.6400   -2.8495   -1.8173 C   0  0  0  0  0  0  0  0  0  0  0  0
   -7.4166   -3.7174   -2.5689 C   0  0  0  0  0  0  0  0  0  0  0  0
   -7.1888   -3.8497   -3.9257 C   0  0  0  0  0  0  0  0  0  0  0  0
   -6.1874   -3.1105   -4.5358 C   0  0  0  0  0  0  0  0  0  0  0  0
   -5.4131   -2.2452   -3.7862 C   0  0  0  0  0  0  0  0  0  0  0  0
   -0.1407    1.9816   -0.4229 C   0  0  0  0  0  0  0  0  0  0  0  0
    1.0595    1.6353    0.4387 C   0  0  0  0  0  0  0  0  0  0  0  0
    5.0723    0.4623    1.7662 C   0  0  0  0  0  0  0  0  0  0  0  0
    6.1284    1.5647    1.8068 C   0  0  0  0  0  0  0  0  0  0  0  0
    5.6154    2.7424    2.6305 C   0  0  0  0  0  0  0  0  0  0  0  0
    4.1642    1.3512    3.9178 C   0  0  0  0  0  0  0  0  0  0  0  0
    4.6063    0.0973    3.1607 C   0  0  0  0  0  0  0  0  0  0  0  0
    1.5884    0.3241    0.0637 N   0  0  0  0  0  0  0  0  0  0  0  0
   -1.1904    0.9735   -0.2631 N   0  0  0  0  0  0  0  0  0  0  0  0
   -3.8715   -0.3715   -2.1985 N   0  0  0  0  0  0  0  0  0  0  0  0
   -4.9264   -1.0610   -0.3184 N   0  0  0  0  0  0  0  0  0  0  0  0
   -3.9554   -0.0866   -0.0127 O   0  0  0  0  0  0  0  0  0  0  0  0
    5.2309    2.3128    3.9303 O   0  0  0  0  0  0  0  0  0  0  0  0
    3.5318    1.8729    1.3725 H   0  0  0  0  0  0  0  0  0  0  0  0
    2.3662   -0.0976    1.9359 H   0  0  0  0  0  0  0  0  0  0  0  0
    3.1164   -0.9605    0.6142 H   0  0  0  0  0  0  0  0  0  0  0  0
    0.2375   -0.7198    1.2496 H   0  0  0  0  0  0  0  0  0  0  0  0
    0.9199   -1.6396   -0.0705 H   0  0  0  0  0  0  0  0  0  0  0  0
   -0.3648   -0.3183   -1.6660 H   0  0  0  0  0  0  0  0  0  0  0  0
   -1.4214   -1.0781   -0.4996 H   0  0  0  0  0  0  0  0  0  0  0  0
   -1.9679    1.4616   -2.1268 H   0  0  0  0  0  0  0  0  0  0  0  0
   -2.7739    2.2179   -0.7731 H   0  0  0  0  0  0  0  0  0  0  0  0
   -6.8087   -2.7529   -0.7956 H   0  0  0  0  0  0  0  0  0  0  0  0
   -8.1707   -4.2690   -2.1120 H   0  0  0  0  0  0  0  0  0  0  0  0
   -7.7688   -4.5038   -4.4890 H   0  0  0  0  0  0  0  0  0  0  0  0
   -6.0186   -3.2071   -5.5575 H   0  0  0  0  0  0  0  0  0  0  0  0
   -4.6591   -1.6936   -4.2432 H   0  0  0  0  0  0  0  0  0  0  0  0
   -0.5218    2.9372   -0.1289 H   0  0  0  0  0  0  0  0  0  0  0  0
    0.1605    2.0174   -1.4490 H   0  0  0  0  0  0  0  0  0  0  0  0
    0.7628    1.6159    1.4666 H   0  0  0  0  0  0  0  0  0  0  0  0
    1.8194    2.3757    0.3002 H   0  0  0  0  0  0  0  0  0  0  0  0
    5.4913   -0.4050    1.3002 H   0  0  0  0  0  0  0  0  0  0  0  0
    6.3377    1.8929    0.8101 H   0  0  0  0  0  0  0  0  0  0  0  0
    7.0232    1.1829    2.2523 H   0  0  0  0  0  0  0  0  0  0  0  0
    6.3902    3.4752    2.7171 H   0  0  0  0  0  0  0  0  0  0  0  0
    4.7691    3.1739    2.1381 H   0  0  0  0  0  0  0  0  0  0  0  0
    3.3093    1.7754    3.4339 H   0  0  0  0  0  0  0  0  0  0  0  0
    3.9113    1.0882    4.9237 H   0  0  0  0  0  0  0  0  0  0  0  0
    5.4102   -0.3697    3.6904 H   0  0  0  0  0  0  0  0  0  0  0  0
    3.7824   -0.5818    3.0910 H   0  0  0  0  0  0  0  0  0  0  0  0
  2  1  1  0  0  0  0
  2  3  1  0  0  0  0
  2 17  1  0  0  0  0
  2 28  1  1  0  0  0
  3 22  1  0  0  0  0
  3 29  1  0  0  0  0
  3 30  1  0  0  0  0
  4 22  1  0  0  0  0
  4  5  1  0  0  0  0
  4 31  1  0  0  0  0
  4 32  1  0  0  0  0
  5 23  1  0  0  0  0
  5 33  1  0  0  0  0
  5 34  1  0  0  0  0
  6 23  1  0  0  0  0
  6  7  1  0  0  0  0
  6 35  1  0  0  0  0
  6 36  1  0  0  0  0
  7 26  1  0  0  0  0
  7 24  2  0  0  0  0
  8 24  1  0  0  0  0
  8  9  1  0  0  0  0
  8 25  2  0  0  0  0
  9 14  1  0  0  0  0
  9 10  2  0  0  0  0
 10 11  1  0  0  0  0
 10 37  1  0  0  0  0
 11 38  1  0  0  0  0
 11 12  2  0  0  0  0
 12 13  1  0  0  0  0
 12 39  1  0  0  0  0
 13 40  1  0  0  0  0
 13 14  2  0  0  0  0
 14 41  1  0  0  0  0
 15 23  1  0  0  0  0
 15 16  1  0  0  0  0
 15 42  1  0  0  0  0
 15 43  1  0  0  0  0
 16 22  1  0  0  0  0
 16 44  1  0  0  0  0
 16 45  1  0  0  0  0
 17 18  1  0  0  0  0
 17 21  1  0  0  0  0
 17 46  1  0  0  0  0
 18 19  1  0  0  0  0
 18 47  1  0  0  0  0
 18 48  1  0  0  0  0
 19 27  1  0  0  0  0
 19 49  1  0  0  0  0
 19 50  1  0  0  0  0
 20 27  1  0  0  0  0
 20 21  1  0  0  0  0
 20 51  1  0  0  0  0
 20 52  1  0  0  0  0
 21 53  1  0  0  0  0
 21 54  1  0  0  0  0
 25 26  1  0  0  0  0
M  END
>  <score>
0.43468141555786133

$$$$
PV-003683508820
 OpenBabel08202115463D

 51 52  0  0  0  0  0  0  0  0999 V2000
   -6.3932   -0.7444   -4.2033 C   0  0  0  0  0  0  0  0  0  0  0  0
   -7.0444   -3.0341   -3.8921 C   0  0  0  0  0  0  0  0  0  0  0  0
   -5.1570   -2.1468   -2.6833 C   0  0  0  0  0  0  0  0  0  0  0  0
   -4.5917   -1.0031   -1.8770 C   0  0  0  0  0  0  0  0  0  0  0  0
   -3.1856   -1.2653   -1.3629 C   0  0  0  0  0  0  0  0  0  0  0  0
   -2.5079   -0.0200   -0.8252 C   0  0  0  0  0  0  0  0  0  0  0  0
   -0.3463    0.8190    0.0786 C   0  0  0  0  0  0  0  0  0  0  0  0
    0.9997    0.5411    0.2590 C   0  0  0  0  0  0  0  0  0  0  0  0
    1.8383    1.5021    0.7915 C   0  0  0  0  0  0  0  0  0  0  0  0
    4.1347    1.9962    1.5643 C   0  0  0  0  0  0  0  0  0  0  0  0
    5.5546    1.4647    1.5415 C   0  0  2  0  0  0  0  0  0  0  0  0
    5.6571    0.1938    2.3172 C   0  0  0  0  0  0  0  0  0  0  0  0
    5.7124   -1.1085    1.8805 C   0  0  0  0  0  0  0  0  0  0  0  0
    5.8026   -1.8839    3.0445 C   0  0  0  0  0  0  0  0  0  0  0  0
    5.6965    1.2628    4.6209 C   0  0  0  0  0  0  0  0  0  0  0  0
    1.3345    2.7455    1.1402 C   0  0  0  0  0  0  0  0  0  0  0  0
   -0.0076    3.0224    0.9602 C   0  0  0  0  0  0  0  0  0  0  0  0
   -0.8488    2.0587    0.4262 C   0  0  0  0  0  0  0  0  0  0  0  0
   -6.4944   -1.8426   -3.2355 N   0  0  0  0  0  0  0  0  0  0  0  0
   -1.2056   -0.1664   -0.4613 N   0  0  0  0  0  0  0  0  0  0  0  0
    3.2107    1.2167    0.9807 N   0  0  0  0  0  0  0  0  0  0  0  0
    5.7972   -1.1152    4.1376 N   0  0  0  0  0  0  0  0  0  0  0  0
    5.7139    0.1566    3.6697 N   0  0  0  0  0  0  0  0  0  0  0  0
   -3.1087    1.0377   -0.7322 O   0  0  0  0  0  0  0  0  0  0  0  0
    3.8677    3.0668    2.0849 O   0  0  0  0  0  0  0  0  0  0  0  0
    6.4485    2.4397    2.0695 O   0  0  0  0  0  0  0  0  0  0  0  0
   -7.3708   -0.4845   -4.5522 H   0  0  0  0  0  0  0  0  0  0  0  0
   -5.7898   -1.0533   -5.0312 H   0  0  0  0  0  0  0  0  0  0  0  0
   -5.9452    0.1056   -3.7323 H   0  0  0  0  0  0  0  0  0  0  0  0
   -6.5032   -3.2262   -4.7949 H   0  0  0  0  0  0  0  0  0  0  0  0
   -8.0761   -2.8695   -4.1231 H   0  0  0  0  0  0  0  0  0  0  0  0
   -6.9549   -3.8753   -3.2370 H   0  0  0  0  0  0  0  0  0  0  0  0
   -4.4908   -2.3574   -3.4937 H   0  0  0  0  0  0  0  0  0  0  0  0
   -5.2340   -3.0069   -2.0515 H   0  0  0  0  0  0  0  0  0  0  0  0
   -5.2329   -0.8300   -1.0380 H   0  0  0  0  0  0  0  0  0  0  0  0
   -4.5696   -0.1303   -2.4956 H   0  0  0  0  0  0  0  0  0  0  0  0
   -2.5959   -1.6537   -2.1669 H   0  0  0  0  0  0  0  0  0  0  0  0
   -3.2397   -1.9897   -0.5773 H   0  0  0  0  0  0  0  0  0  0  0  0
   -0.8178   -1.0575   -0.5877 H   0  0  0  0  0  0  0  0  0  0  0  0
    1.3786   -0.3904   -0.0063 H   0  0  0  0  0  0  0  0  0  0  0  0
    3.5231    0.3498    0.6471 H   0  0  0  0  0  0  0  0  0  0  0  0
    5.8164    1.2562    0.5252 H   0  0  0  0  0  0  0  0  0  0  0  0
    6.8688    2.0941    2.8604 H   0  0  0  0  0  0  0  0  0  0  0  0
    5.6918   -1.4461    0.8971 H   0  0  0  0  0  0  0  0  0  0  0  0
    5.8654   -2.9219    3.0561 H   0  0  0  0  0  0  0  0  0  0  0  0
    5.1481    0.9750    5.4934 H   0  0  0  0  0  0  0  0  0  0  0  0
    5.2286    2.1130    4.1702 H   0  0  0  0  0  0  0  0  0  0  0  0
    6.6999    1.5116    4.8966 H   0  0  0  0  0  0  0  0  0  0  0  0
    1.9664    3.4699    1.5371 H   0  0  0  0  0  0  0  0  0  0  0  0
   -0.3864    3.9540    1.2255 H   0  0  0  0  0  0  0  0  0  0  0  0
   -1.8579    2.2685    0.2871 H   0  0  0  0  0  0  0  0  0  0  0  0
  1 19  1  0  0  0  0
  1 27  1  0  0  0  0
  1 28  1  0  0  0  0
  1 29  1  0  0  0  0
  2 19  1  0  0  0  0
  2 30  1  0  0  0  0
  2 31  1  0  0  0  0
  2 32  1  0  0  0  0
  3 19  1  0  0  0  0
  3  4  1  0  0  0  0
  3 33  1  0  0  0  0
  3 34  1  0  0  0  0
  4  5  1  0  0  0  0
  4 35  1  0  0  0  0
  4 36  1  0  0  0  0
  5  6  1  0  0  0  0
  5 37  1  0  0  0  0
  5 38  1  0  0  0  0
  6 20  1  0  0  0  0
  6 24  2  0  0  0  0
  7 20  1  0  0  0  0
  7 18  1  0  0  0  0
  7  8  2  0  0  0  0
  8  9  1  0  0  0  0
  8 40  1  0  0  0  0
  9 21  1  0  0  0  0
  9 16  2  0  0  0  0
 10 21  1  0  0  0  0
 10 11  1  0  0  0  0
 10 25  2  0  0  0  0
 11 26  1  0  0  0  0
 11 12  1  0  0  0  0
 11 42  1  6  0  0  0
 12 23  1  0  0  0  0
 12 13  2  0  0  0  0
 13 14  1  0  0  0  0
 13 44  1  0  0  0  0
 14 45  1  0  0  0  0
 14 22  2  0  0  0  0
 15 23  1  0  0  0  0
 15 46  1  0  0  0  0
 15 47  1  0  0  0  0
 15 48  1  0  0  0  0
 16 17  1  0  0  0  0
 16 49  1  0  0  0  0
 17 50  1  0  0  0  0
 17 18  2  0  0  0  0
 18 51  1  0  0  0  0
 20 39  1  0  0  0  0
 21 41  1  0  0  0  0
 22 23  1  0  0  0  0
 26 43  1  0  0  0  0
M  END
>  <score>
0.43478262424468994

$$$$
Z3519660028
 OpenBabel08202115463D

 42 43  0  0  0  0  0  0  0  0999 V2000
    1.9892    3.3392    0.6355 C   0  0  0  0  0  0  0  0  0  0  0  0
    3.1098    2.6565    1.3413 C   0  0  0  0  0  0  0  0  0  0  0  0
    3.5139    1.3924    1.5400 C   0  0  0  0  0  0  0  0  0  0  0  0
    2.8391    0.1394    1.0341 C   0  0  0  0  0  0  0  0  0  0  0  0
    0.6773   -0.3145   -0.0525 C   0  0  0  0  0  0  0  0  0  0  0  0
   -0.8192   -0.0404    0.0237 C   0  0  2  0  0  0  0  0  0  0  0  0
   -1.6648   -1.0516   -0.7263 C   0  0  0  0  0  0  0  0  0  0  0  0
   -3.1477   -0.7179   -0.7228 C   0  0  0  0  0  0  0  0  0  0  0  0
   -4.0108   -1.6056   -1.5789 C   0  0  0  0  0  0  0  0  0  0  0  0
   -3.5098   -2.7510   -2.1726 C   0  0  0  0  0  0  0  0  0  0  0  0
   -4.3540   -3.5197   -2.9500 C   0  0  0  0  0  0  0  0  0  0  0  0
   -5.6668   -3.1145   -3.1049 C   0  0  0  0  0  0  0  0  0  0  0  0
   -6.0846   -1.9587   -2.4732 C   0  0  0  0  0  0  0  0  0  0  0  0
    4.7005    1.4608    2.3192 C   0  0  0  0  0  0  0  0  0  0  0  0
    5.5327    0.3072    2.7922 C   0  0  0  0  0  0  0  0  0  0  0  0
    4.9291    2.7646    2.5481 C   0  0  0  0  0  0  0  0  0  0  0  0
    1.3882    0.2866    0.9214 N   0  0  0  0  0  0  0  0  0  0  0  0
   -1.0778    1.3488   -0.4544 N   0  0  0  0  0  0  0  0  0  0  0  0
   -5.2822   -1.2033   -1.7170 N   0  0  0  0  0  0  0  0  0  0  0  0
    1.1580   -1.0225   -0.9334 O   0  0  0  0  0  0  0  0  0  0  0  0
    3.9646    3.5358    1.9565 O   0  0  0  0  0  0  0  0  0  0  0  0
    6.5312    0.0301    1.9676 F   0  0  0  0  0  0  0  0  0  0  0  0
    4.8257   -0.8175    2.9126 F   0  0  0  0  0  0  0  0  0  0  0  0
    6.0849    0.5309    3.9854 F   0  0  0  0  0  0  0  0  0  0  0  0
    2.2426    3.4682   -0.3961 H   0  0  0  0  0  0  0  0  0  0  0  0
    1.8166    4.2959    1.0824 H   0  0  0  0  0  0  0  0  0  0  0  0
    1.1036    2.7437    0.7131 H   0  0  0  0  0  0  0  0  0  0  0  0
    3.0503   -0.6609    1.7123 H   0  0  0  0  0  0  0  0  0  0  0  0
    3.2352   -0.0968    0.0686 H   0  0  0  0  0  0  0  0  0  0  0  0
    0.9168    0.8418    1.5771 H   0  0  0  0  0  0  0  0  0  0  0  0
   -1.1008   -0.0883    1.0549 H   0  0  0  0  0  0  0  0  0  0  0  0
   -1.9071    1.6837   -0.0537 H   0  0  0  0  0  0  0  0  0  0  0  0
   -1.1643    1.3473   -1.4305 H   0  0  0  0  0  0  0  0  0  0  0  0
   -1.5317   -2.0102   -0.2699 H   0  0  0  0  0  0  0  0  0  0  0  0
   -1.3279   -1.0894   -1.7411 H   0  0  0  0  0  0  0  0  0  0  0  0
   -3.2606    0.2875   -1.0711 H   0  0  0  0  0  0  0  0  0  0  0  0
   -3.4995   -0.7883    0.2853 H   0  0  0  0  0  0  0  0  0  0  0  0
   -2.5166   -3.0276   -2.0360 H   0  0  0  0  0  0  0  0  0  0  0  0
   -4.0088   -4.3864   -3.4097 H   0  0  0  0  0  0  0  0  0  0  0  0
   -6.3273   -3.6691   -3.6860 H   0  0  0  0  0  0  0  0  0  0  0  0
   -7.0741   -1.6614   -2.5922 H   0  0  0  0  0  0  0  0  0  0  0  0
    5.7287    3.1371    3.0990 H   0  0  0  0  0  0  0  0  0  0  0  0
  1  2  1  0  0  0  0
  1 25  1  0  0  0  0
  1 26  1  0  0  0  0
  1 27  1  0  0  0  0
  2 21  1  0  0  0  0
  2  3  2  0  0  0  0
  3  4  1  0  0  0  0
  3 14  1  0  0  0  0
  4 17  1  0  0  0  0
  4 28  1  0  0  0  0
  4 29  1  0  0  0  0
  5 17  1  0  0  0  0
  5  6  1  0  0  0  0
  5 20  2  0  0  0  0
  6 18  1  0  0  0  0
  6  7  1  0  0  0  0
  6 31  1  1  0  0  0
  7  8  1  0  0  0  0
  7 34  1  0  0  0  0
  7 35  1  0  0  0  0
  8  9  1  0  0  0  0
  8 36  1  0  0  0  0
  8 37  1  0  0  0  0
  9 19  1  0  0  0  0
  9 10  2  0  0  0  0
 10 11  1  0  0  0  0
 10 38  1  0  0  0  0
 11 39  1  0  0  0  0
 11 12  2  0  0  0  0
 12 13  1  0  0  0  0
 12 40  1  0  0  0  0
 13 41  1  0  0  0  0
 13 19  2  0  0  0  0
 14 15  1  0  0  0  0
 14 16  2  0  0  0  0
 15 22  1  0  0  0  0
 15 23  1  0  0  0  0
 15 24  1  0  0  0  0
 16 21  1  0  0  0  0
 16 42  1  0  0  0  0
 17 30  1  0  0  0  0
 18 32  1  0  0  0  0
 18 33  1  0  0  0  0
M  END
>  <score>
0.43479621410369873

$$$$
Z4516713615
 OpenBabel08202115463D

 55 57  0  0  0  0  0  0  0  0999 V2000
    4.8938    2.8888    3.0526 C   0  0  0  0  0  0  0  0  0  0  0  0
    5.3466    1.8014    2.0894 C   0  0  0  0  0  0  0  0  0  0  0  0
    5.8133    2.4353    0.7940 C   0  0  0  0  0  0  0  0  0  0  0  0
    5.9945    0.4304    3.8709 C   0  0  0  0  0  0  0  0  0  0  0  0
    4.8401   -0.4834    3.5832 C   0  0  0  0  0  0  0  0  0  0  0  0
    4.1922    0.8877    1.8017 C   0  0  2  0  0  0  0  0  0  0  0  0
    3.0436    1.6999    1.2260 C   0  0  0  0  0  0  0  0  0  0  0  0
    1.9107    0.7862    0.7690 C   0  0  0  0  0  0  0  0  0  0  0  0
   -0.4573    0.7822    0.0273 C   0  0  0  0  0  0  0  0  0  0  0  0
   -0.4956   -0.5279   -0.4115 C   0  0  0  0  0  0  0  0  0  0  0  0
   -1.6921   -1.0798   -0.8419 C   0  0  0  0  0  0  0  0  0  0  0  0
   -2.8456   -0.3186   -0.8375 C   0  0  0  0  0  0  0  0  0  0  0  0
   -4.1688   -2.1024   -1.6980 C   0  0  1  0  0  0  0  0  0  0  0  0
   -5.5665   -2.6643   -1.2829 C   0  0  0  0  0  0  0  0  0  0  0  0
   -6.7347   -1.9655   -2.0304 C   0  0  0  0  0  0  0  0  0  0  0  0
   -6.5021   -1.9856   -3.5671 C   0  0  0  0  0  0  0  0  0  0  0  0
   -5.1044   -1.4237   -3.9821 C   0  0  0  0  0  0  0  0  0  0  0  0
   -3.9361   -2.1225   -3.2346 C   0  0  1  0  0  0  0  0  0  0  0  0
   -2.8071    0.9953   -0.3974 C   0  0  0  0  0  0  0  0  0  0  0  0
   -1.6142    1.5459    0.0318 C   0  0  0  0  0  0  0  0  0  0  0  0
    6.4314    1.0797    2.6748 O   0  0  0  0  0  0  0  0  0  0  0  0
    3.7553    0.2383    2.9977 O   0  0  0  0  0  0  0  0  0  0  0  0
    2.0502   -0.4360    0.7471 O   0  0  0  0  0  0  0  0  0  0  0  0
   -4.0667   -0.7458   -1.2380 O   0  0  0  0  0  0  0  0  0  0  0  0
   -2.7169   -1.4403   -3.5315 O   0  0  0  0  0  0  0  0  0  0  0  0
    0.7273    1.3909    0.4796 N   0  0  0  0  0  0  0  0  0  0  0  0
    4.6042    2.2756    3.8803 H   0  0  0  0  0  0  0  0  0  0  0  0
    4.0704    3.4505    2.6635 H   0  0  0  0  0  0  0  0  0  0  0  0
    5.6915    3.5547    3.3079 H   0  0  0  0  0  0  0  0  0  0  0  0
    4.9866    2.9147    0.3128 H   0  0  0  0  0  0  0  0  0  0  0  0
    6.2107    1.6788    0.1500 H   0  0  0  0  0  0  0  0  0  0  0  0
    6.5721    3.1597    1.0047 H   0  0  0  0  0  0  0  0  0  0  0  0
    5.6890    1.1701    4.5811 H   0  0  0  0  0  0  0  0  0  0  0  0
    6.8031   -0.1414    4.2761 H   0  0  0  0  0  0  0  0  0  0  0  0
    5.1586   -1.2481    2.9058 H   0  0  0  0  0  0  0  0  0  0  0  0
    4.5107   -0.9308    4.4976 H   0  0  0  0  0  0  0  0  0  0  0  0
    4.4977    0.1480    1.0914 H   0  0  0  0  0  0  0  0  0  0  0  0
    3.3981    2.2646    0.3892 H   0  0  0  0  0  0  0  0  0  0  0  0
    2.6749    2.3672    1.9768 H   0  0  0  0  0  0  0  0  0  0  0  0
    0.6964    2.3629    0.6002 H   0  0  0  0  0  0  0  0  0  0  0  0
    0.3732   -1.0995   -0.4187 H   0  0  0  0  0  0  0  0  0  0  0  0
   -1.7217   -2.0668   -1.1683 H   0  0  0  0  0  0  0  0  0  0  0  0
   -3.4109   -2.6960   -1.2310 H   0  0  0  0  0  0  0  0  0  0  0  0
   -5.5950   -3.7107   -1.5043 H   0  0  0  0  0  0  0  0  0  0  0  0
   -5.6963   -2.5181   -0.2309 H   0  0  0  0  0  0  0  0  0  0  0  0
   -7.6481   -2.4765   -1.8079 H   0  0  0  0  0  0  0  0  0  0  0  0
   -6.8039   -0.9501   -1.7001 H   0  0  0  0  0  0  0  0  0  0  0  0
   -7.2600   -1.3921   -4.0341 H   0  0  0  0  0  0  0  0  0  0  0  0
   -6.5782   -2.9964   -3.9099 H   0  0  0  0  0  0  0  0  0  0  0  0
   -4.9746   -1.5698   -5.0341 H   0  0  0  0  0  0  0  0  0  0  0  0
   -5.0760   -0.3773   -3.7606 H   0  0  0  0  0  0  0  0  0  0  0  0
   -3.8669   -3.1379   -3.5649 H   0  0  0  0  0  0  0  0  0  0  0  0
   -2.3335   -1.8035   -4.3332 H   0  0  0  0  0  0  0  0  0  0  0  0
   -3.6759    1.5670   -0.3903 H   0  0  0  0  0  0  0  0  0  0  0  0
   -1.5845    2.5329    0.3582 H   0  0  0  0  0  0  0  0  0  0  0  0
  1  2  1  0  0  0  0
  1 27  1  0  0  0  0
  1 28  1  0  0  0  0
  1 29  1  0  0  0  0
  2  3  1  0  0  0  0
  2 21  1  0  0  0  0
  2  6  1  0  0  0  0
  3 30  1  0  0  0  0
  3 31  1  0  0  0  0
  3 32  1  0  0  0  0
  4 21  1  0  0  0  0
  4  5  1  0  0  0  0
  4 33  1  0  0  0  0
  4 34  1  0  0  0  0
  5 22  1  0  0  0  0
  5 35  1  0  0  0  0
  5 36  1  0  0  0  0
  6 22  1  0  0  0  0
  6  7  1  0  0  0  0
  6 37  1  6  0  0  0
  7  8  1  0  0  0  0
  7 38  1  0  0  0  0
  7 39  1  0  0  0  0
  8 26  1  0  0  0  0
  8 23  2  0  0  0  0
  9 26  1  0  0  0  0
  9 20  1  0  0  0  0
  9 10  2  0  0  0  0
 10 11  1  0  0  0  0
 10 41  1  0  0  0  0
 11 42  1  0  0  0  0
 11 12  2  0  0  0  0
 12 24  1  0  0  0  0
 12 19  1  0  0  0  0
 13 24  1  0  0  0  0
 13 14  1  0  0  0  0
 13 18  1  0  0  0  0
 13 43  1  1  0  0  0
 14 15  1  0  0  0  0
 14 44  1  0  0  0  0
 14 45  1  0  0  0  0
 15 16  1  0  0  0  0
 15 46  1  0  0  0  0
 15 47  1  0  0  0  0
 16 17  1  0  0  0  0
 16 48  1  0  0  0  0
 16 49  1  0  0  0  0
 17 18  1  0  0  0  0
 17 50  1  0  0  0  0
 17 51  1  0  0  0  0
 18 25  1  0  0  0  0
 18 52  1  6  0  0  0
 19 54  1  0  0  0  0
 19 20  2  0  0  0  0
 20 55  1  0  0  0  0
 25 53  1  0  0  0  0
 26 40  1  0  0  0  0
M  END
>  <score>
0.43482065200805664

$$$$
PV-003107613992
 OpenBabel08202115463D

 52 54  0  0  0  0  0  0  0  0999 V2000
   -7.1776   -3.7400   -3.8061 C   0  0  0  0  0  0  0  0  0  0  0  0
   -5.6210   -3.2651   -2.0972 C   0  0  1  0  0  0  0  0  0  0  0  0
   -4.1313   -3.3069   -1.6575 C   0  0  0  0  0  0  0  0  0  0  0  0
   -4.0077   -1.7986   -2.0476 C   0  0  1  0  0  0  0  0  0  0  0  0
   -3.3437   -0.7645   -1.1474 C   0  0  0  0  0  0  0  0  0  0  0  0
   -1.5810    0.9276   -1.0501 C   0  0  0  0  0  0  0  0  0  0  0  0
   -0.3518    0.3717   -0.3654 C   0  0  0  0  0  0  0  0  0  0  0  0
    0.5828    1.4460    0.1578 C   0  0  1  0  0  0  0  0  0  0  0  0
   -0.1717    2.4837    0.9728 C   0  0  0  0  0  0  0  0  0  0  0  0
    1.7253    0.8373    0.9479 C   0  0  0  0  0  0  0  0  0  0  0  0
    2.6598    1.8651    1.5364 C   0  0  0  0  0  0  0  0  0  0  0  0
    4.9413    2.0991    2.4072 C   0  0  0  0  0  0  0  0  0  0  0  0
    6.0348    1.3393    2.9857 C   0  0  0  0  0  0  0  0  0  0  0  0
    7.3092    1.6129    3.3375 C   0  0  0  0  0  0  0  0  0  0  0  0
    8.0003    2.9383    3.2006 C   0  0  0  0  0  0  0  0  0  0  0  0
    6.9787   -0.4396    3.7972 C   0  0  0  0  0  0  0  0  0  0  0  0
   -4.3895   -1.5681   -3.4643 C   0  0  0  0  0  0  0  0  0  0  0  0
   -5.4773   -1.7907   -2.4063 C   0  0  1  0  0  0  0  0  0  0  0  0
   -5.9179   -4.0755   -3.2358 O   0  0  0  0  0  0  0  0  0  0  0  0
   -3.7426   -0.5526   -0.0167 O   0  0  0  0  0  0  0  0  0  0  0  0
    5.0144    3.3126    2.2672 O   0  0  0  0  0  0  0  0  0  0  0  0
    5.8055    0.0099    3.2786 O   0  0  0  0  0  0  0  0  0  0  0  0
   -2.3109   -0.1389   -1.7191 N   0  0  0  0  0  0  0  0  0  0  0  0
    3.9086    1.3204    2.0723 N   0  0  0  0  0  0  0  0  0  0  0  0
    7.9058    0.4761    3.8543 N   0  0  0  0  0  0  0  0  0  0  0  0
   -7.2903   -4.5282   -4.5208 H   0  0  0  0  0  0  0  0  0  0  0  0
   -7.1528   -2.7804   -4.2788 H   0  0  0  0  0  0  0  0  0  0  0  0
   -7.9582   -3.7576   -3.0744 H   0  0  0  0  0  0  0  0  0  0  0  0
   -6.3156   -3.4828   -1.3129 H   0  0  0  0  0  0  0  0  0  0  0  0
   -3.9839   -3.5070   -0.6167 H   0  0  0  0  0  0  0  0  0  0  0  0
   -3.5183   -3.9644   -2.2379 H   0  0  0  0  0  0  0  0  0  0  0  0
   -2.0352   -0.4077   -2.6203 H   0  0  0  0  0  0  0  0  0  0  0  0
   -2.2152    1.3854   -0.3199 H   0  0  0  0  0  0  0  0  0  0  0  0
   -1.2827    1.6584   -1.7725 H   0  0  0  0  0  0  0  0  0  0  0  0
    0.1843   -0.2315   -1.0680 H   0  0  0  0  0  0  0  0  0  0  0  0
   -0.6670   -0.2342    0.4582 H   0  0  0  0  0  0  0  0  0  0  0  0
    1.0074    1.9456   -0.6878 H   0  0  0  0  0  0  0  0  0  0  0  0
   -0.7672    3.0868    0.3197 H   0  0  0  0  0  0  0  0  0  0  0  0
    0.5268    3.1049    1.4934 H   0  0  0  0  0  0  0  0  0  0  0  0
   -0.8060    1.9899    1.6790 H   0  0  0  0  0  0  0  0  0  0  0  0
    2.2873    0.2013    0.2964 H   0  0  0  0  0  0  0  0  0  0  0  0
    1.3137    0.2563    1.7466 H   0  0  0  0  0  0  0  0  0  0  0  0
    2.1468    2.3660    2.3306 H   0  0  0  0  0  0  0  0  0  0  0  0
    2.9057    2.5697    0.7696 H   0  0  0  0  0  0  0  0  0  0  0  0
    3.9898    0.3508    2.1895 H   0  0  0  0  0  0  0  0  0  0  0  0
    7.2695    3.7144    3.1088 H   0  0  0  0  0  0  0  0  0  0  0  0
    8.6210    2.9283    2.3291 H   0  0  0  0  0  0  0  0  0  0  0  0
    8.6032    3.1169    4.0664 H   0  0  0  0  0  0  0  0  0  0  0  0
    7.1231   -1.4185    4.1173 H   0  0  0  0  0  0  0  0  0  0  0  0
   -4.1965   -2.3215   -4.1992 H   0  0  0  0  0  0  0  0  0  0  0  0
   -4.2598   -0.6004   -3.9022 H   0  0  0  0  0  0  0  0  0  0  0  0
   -6.1715   -1.0375   -2.0967 H   0  0  0  0  0  0  0  0  0  0  0  0
  1 19  1  0  0  0  0
  1 26  1  0  0  0  0
  1 27  1  0  0  0  0
  1 28  1  0  0  0  0
  2 19  1  0  0  0  0
  2  3  1  0  0  0  0
  2 18  1  0  0  0  0
  2 29  1  1  0  0  0
  3  4  1  0  0  0  0
  3 30  1  0  0  0  0
  3 31  1  0  0  0  0
  4  5  1  1  0  0  0
  4 17  1  0  0  0  0
  4 18  1  0  0  0  0
  5 23  1  0  0  0  0
  5 20  2  0  0  0  0
  6 23  1  0  0  0  0
  6  7  1  0  0  0  0
  6 33  1  0  0  0  0
  6 34  1  0  0  0  0
  7  8  1  0  0  0  0
  7 35  1  0  0  0  0
  7 36  1  0  0  0  0
  8  9  1  0  0  0  0
  8 10  1  0  0  0  0
  8 37  1  6  0  0  0
  9 38  1  0  0  0  0
  9 39  1  0  0  0  0
  9 40  1  0  0  0  0
 10 11  1  0  0  0  0
 10 41  1  0  0  0  0
 10 42  1  0  0  0  0
 11 24  1  0  0  0  0
 11 43  1  0  0  0  0
 11 44  1  0  0  0  0
 12 24  1  0  0  0  0
 12 13  1  0  0  0  0
 12 21  2  0  0  0  0
 13 22  1  0  0  0  0
 13 14  2  0  0  0  0
 14 15  1  0  0  0  0
 14 25  1  0  0  0  0
 15 46  1  0  0  0  0
 15 47  1  0  0  0  0
 15 48  1  0  0  0  0
 16 22  1  0  0  0  0
 16 49  1  0  0  0  0
 16 25  2  0  0  0  0
 17 18  1  0  0  0  0
 17 50  1  0  0  0  0
 17 51  1  0  0  0  0
 18 52  1  1  0  0  0
 23 32  1  0  0  0  0
 24 45  1  0  0  0  0
M  END
>  <score>
0.43485915660858154

$$$$
Z3683466385
 OpenBabel08202115463D

 48 49  0  0  0  0  0  0  0  0999 V2000
    0.6879    2.5677    0.2063 C   0  0  0  0  0  0  0  0  0  0  0  0
    0.0987    0.1735   -0.3430 C   0  0  0  0  0  0  0  0  0  0  0  0
   -1.8260   -0.2182   -1.8003 C   0  0  0  0  0  0  0  0  0  0  0  0
   -3.1264   -0.5609   -1.1166 C   0  0  0  0  0  0  0  0  0  0  0  0
   -4.7959   -1.0642   -2.9367 C   0  0  0  0  0  0  0  0  0  0  0  0
   -5.8262   -2.0862   -3.2852 C   0  0  0  0  0  0  0  0  0  0  0  0
   -4.5745   -3.8407   -2.3718 C   0  0  0  0  0  0  0  0  0  0  0  0
   -3.7957   -2.8255   -1.5461 C   0  0  0  0  0  0  0  0  0  0  0  0
    2.0701    0.6747    1.0476 C   0  0  1  0  0  0  0  0  0  0  0  0
    3.3488    1.2413    0.4258 C   0  0  0  0  0  0  0  0  0  0  0  0
    4.5815    0.9425    1.2390 C   0  0  0  0  0  0  0  0  0  0  0  0
    4.4470    1.4249    2.6772 C   0  0  2  0  0  0  0  0  0  0  0  0
    5.6697    0.9630    3.4949 C   0  0  0  0  0  0  0  0  0  0  0  0
    3.1672    0.8290    3.2816 C   0  0  0  0  0  0  0  0  0  0  0  0
    1.9413    1.1500    2.4620 C   0  0  0  0  0  0  0  0  0  0  0  0
    0.9083    1.1290    0.2727 N   0  0  0  0  0  0  0  0  0  0  0  0
   -0.9444    0.6472   -1.0310 N   0  0  0  0  0  0  0  0  0  0  0  0
   -3.9165   -1.5476   -1.8690 N   0  0  0  0  0  0  0  0  0  0  0  0
    0.3852   -1.0145   -0.2193 O   0  0  0  0  0  0  0  0  0  0  0  0
   -5.1624   -3.3018   -3.5696 O   0  0  0  0  0  0  0  0  0  0  0  0
   -3.0851   -3.1778   -0.6191 O   0  0  0  0  0  0  0  0  0  0  0  0
    6.7501    1.4701    2.8350 F   0  0  0  0  0  0  0  0  0  0  0  0
    5.6438   -0.3726    3.5272 F   0  0  0  0  0  0  0  0  0  0  0  0
   -0.3620    2.7705    0.2467 H   0  0  0  0  0  0  0  0  0  0  0  0
    1.0893    2.9478   -0.7098 H   0  0  0  0  0  0  0  0  0  0  0  0
    1.1745    3.0413    1.0332 H   0  0  0  0  0  0  0  0  0  0  0  0
   -1.1219    1.6109   -1.0171 H   0  0  0  0  0  0  0  0  0  0  0  0
   -1.3047   -1.1307   -2.0014 H   0  0  0  0  0  0  0  0  0  0  0  0
   -2.0540    0.2737   -2.7228 H   0  0  0  0  0  0  0  0  0  0  0  0
   -3.7046    0.3333   -1.0117 H   0  0  0  0  0  0  0  0  0  0  0  0
   -2.9096   -0.9617   -0.1485 H   0  0  0  0  0  0  0  0  0  0  0  0
   -5.2860   -0.1714   -2.6087 H   0  0  0  0  0  0  0  0  0  0  0  0
   -4.2076   -0.8507   -3.8045 H   0  0  0  0  0  0  0  0  0  0  0  0
   -6.3786   -1.7656   -4.1437 H   0  0  0  0  0  0  0  0  0  0  0  0
   -6.4947   -2.2226   -2.4609 H   0  0  0  0  0  0  0  0  0  0  0  0
   -3.9066   -4.6286   -2.6513 H   0  0  0  0  0  0  0  0  0  0  0  0
   -5.3594   -4.2373   -1.7622 H   0  0  0  0  0  0  0  0  0  0  0  0
    2.1123   -0.3944    1.0345 H   0  0  0  0  0  0  0  0  0  0  0  0
    3.4716    0.8159   -0.5483 H   0  0  0  0  0  0  0  0  0  0  0  0
    3.2453    2.3030    0.3415 H   0  0  0  0  0  0  0  0  0  0  0  0
    5.4197    1.4311    0.7878 H   0  0  0  0  0  0  0  0  0  0  0  0
    4.7444   -0.1151    1.2433 H   0  0  0  0  0  0  0  0  0  0  0  0
    4.3889    2.4932    2.6941 H   0  0  0  0  0  0  0  0  0  0  0  0
    5.5941    1.3777    4.4783 H   0  0  0  0  0  0  0  0  0  0  0  0
    3.0355    1.2254    4.2667 H   0  0  0  0  0  0  0  0  0  0  0  0
    3.2755   -0.2341    3.3359 H   0  0  0  0  0  0  0  0  0  0  0  0
    1.0931    0.6756    2.9096 H   0  0  0  0  0  0  0  0  0  0  0  0
    1.7968    2.2102    2.4580 H   0  0  0  0  0  0  0  0  0  0  0  0
  1 16  1  0  0  0  0
  1 24  1  0  0  0  0
  1 25  1  0  0  0  0
  1 26  1  0  0  0  0
  2 16  1  0  0  0  0
  2 17  1  0  0  0  0
  2 19  2  0  0  0  0
  3 17  1  0  0  0  0
  3  4  1  0  0  0  0
  3 28  1  0  0  0  0
  3 29  1  0  0  0  0
  4 18  1  0  0  0  0
  4 30  1  0  0  0  0
  4 31  1  0  0  0  0
  5 18  1  0  0  0  0
  5  6  1  0  0  0  0
  5 32  1  0  0  0  0
  5 33  1  0  0  0  0
  6 20  1  0  0  0  0
  6 34  1  0  0  0  0
  6 35  1  0  0  0  0
  7 20  1  0  0  0  0
  7  8  1  0  0  0  0
  7 36  1  0  0  0  0
  7 37  1  0  0  0  0
  8 18  1  0  0  0  0
  8 21  2  0  0  0  0
  9 16  1  0  0  0  0
  9 10  1  0  0  0  0
  9 15  1  0  0  0  0
  9 38  1  6  0  0  0
 10 11  1  0  0  0  0
 10 39  1  0  0  0  0
 10 40  1  0  0  0  0
 11 12  1  0  0  0  0
 11 41  1  0  0  0  0
 11 42  1  0  0  0  0
 12 13  1  0  0  0  0
 12 14  1  0  0  0  0
 12 43  1  1  0  0  0
 13 22  1  0  0  0  0
 13 23  1  0  0  0  0
 13 44  1  0  0  0  0
 14 15  1  0  0  0  0
 14 45  1  0  0  0  0
 14 46  1  0  0  0  0
 15 47  1  0  0  0  0
 15 48  1  0  0  0  0
 17 27  1  0  0  0  0
M  END
>  <score>
0.43487656116485596

$$$$
Z4246107527
 OpenBabel08202115463D

 55 58  0  0  0  0  0  0  0  0999 V2000
   -5.8029   -4.5676   -3.5948 C   0  0  0  0  0  0  0  0  0  0  0  0
   -5.6785   -3.2407   -2.9042 C   0  0  0  0  0  0  0  0  0  0  0  0
   -6.5240   -2.1888   -3.2015 C   0  0  0  0  0  0  0  0  0  0  0  0
   -6.3555   -0.9906   -2.5325 C   0  0  0  0  0  0  0  0  0  0  0  0
   -5.3508   -0.8929   -1.5897 C   0  0  0  0  0  0  0  0  0  0  0  0
   -4.5518   -1.9976   -1.3518 C   0  0  0  0  0  0  0  0  0  0  0  0
   -3.4447   -1.9649   -0.3388 C   0  0  0  0  0  0  0  0  0  0  0  0
   -1.6144   -0.7133    0.5850 C   0  0  0  0  0  0  0  0  0  0  0  0
   -0.9352    0.6294    0.6840 C   0  0  0  0  0  0  0  0  0  0  0  0
    0.6511    1.2905   -1.2088 C   0  0  0  0  0  0  0  0  0  0  0  0
    1.7662    1.4266   -0.2831 C   0  0  0  0  0  0  0  0  0  0  0  0
    3.0695    1.3351   -0.6125 C   0  0  0  0  0  0  0  0  0  0  0  0
    3.7994    1.5365    0.6281 C   0  0  0  0  0  0  0  0  0  0  0  0
    2.8593    1.7355    1.6057 C   0  0  0  0  0  0  0  0  0  0  0  0
    3.2227    1.9907    3.0465 C   0  0  0  0  0  0  0  0  0  0  0  0
    4.6776    2.4617    3.1195 C   0  0  0  0  0  0  0  0  0  0  0  0
    5.6239    1.5068    2.3843 C   0  0  0  0  0  0  0  0  0  0  0  0
    5.4647    0.1047    2.9222 C   0  0  0  0  0  0  0  0  0  0  0  0
    7.0715    1.9616    2.5659 C   0  0  0  0  0  0  0  0  0  0  0  0
    5.2464    1.5458    0.9111 C   0  0  0  0  0  0  0  0  0  0  0  0
   -1.7486    1.1614   -1.5347 C   0  0  0  0  0  0  0  0  0  0  0  0
   -2.4255   -0.1856   -1.5867 C   0  0  0  0  0  0  0  0  0  0  0  0
   -2.8116   -0.6337   -0.2513 N   0  0  0  0  0  0  0  0  0  0  0  0
   -0.5812    1.1012   -0.6537 N   0  0  0  0  0  0  0  0  0  0  0  0
   -4.7010   -3.1638   -1.9960 N   0  0  0  0  0  0  0  0  0  0  0  0
    0.8318    1.3465   -2.4296 O   0  0  0  0  0  0  0  0  0  0  0  0
    6.0836    1.5822    0.0245 O   0  0  0  0  0  0  0  0  0  0  0  0
    1.6585    1.6636    1.0376 O   0  0  0  0  0  0  0  0  0  0  0  0
   -6.7771   -4.9729   -3.4169 H   0  0  0  0  0  0  0  0  0  0  0  0
   -5.0624   -5.2389   -3.2128 H   0  0  0  0  0  0  0  0  0  0  0  0
   -5.6578   -4.4369   -4.6468 H   0  0  0  0  0  0  0  0  0  0  0  0
   -7.2728   -2.2964   -3.9151 H   0  0  0  0  0  0  0  0  0  0  0  0
   -6.9732   -0.1789   -2.7351 H   0  0  0  0  0  0  0  0  0  0  0  0
   -5.1976   -0.0060   -1.0685 H   0  0  0  0  0  0  0  0  0  0  0  0
   -2.7015   -2.6827   -0.6167 H   0  0  0  0  0  0  0  0  0  0  0  0
   -3.8464   -2.2195    0.6197 H   0  0  0  0  0  0  0  0  0  0  0  0
   -1.8936   -1.0374    1.5657 H   0  0  0  0  0  0  0  0  0  0  0  0
   -0.9340   -1.4189    0.1558 H   0  0  0  0  0  0  0  0  0  0  0  0
   -0.0480    0.5366    1.2748 H   0  0  0  0  0  0  0  0  0  0  0  0
   -1.5992    1.3309    1.1444 H   0  0  0  0  0  0  0  0  0  0  0  0
    3.4691    1.1577   -1.5562 H   0  0  0  0  0  0  0  0  0  0  0  0
    2.5809    2.7461    3.4495 H   0  0  0  0  0  0  0  0  0  0  0  0
    3.1095    1.0881    3.6099 H   0  0  0  0  0  0  0  0  0  0  0  0
    4.9720    2.5176    4.1467 H   0  0  0  0  0  0  0  0  0  0  0  0
    4.7500    3.4317    2.6738 H   0  0  0  0  0  0  0  0  0  0  0  0
    6.2000   -0.5336    2.4786 H   0  0  0  0  0  0  0  0  0  0  0  0
    4.4869   -0.2592    2.6849 H   0  0  0  0  0  0  0  0  0  0  0  0
    5.5944    0.1136    3.9843 H   0  0  0  0  0  0  0  0  0  0  0  0
    7.3407    1.8920    3.5991 H   0  0  0  0  0  0  0  0  0  0  0  0
    7.1701    2.9758    2.2394 H   0  0  0  0  0  0  0  0  0  0  0  0
    7.7172    1.3354    1.9864 H   0  0  0  0  0  0  0  0  0  0  0  0
   -2.4374    1.8898   -1.1606 H   0  0  0  0  0  0  0  0  0  0  0  0
   -1.4353    1.4388   -2.5195 H   0  0  0  0  0  0  0  0  0  0  0  0
   -1.7513   -0.8988   -2.0129 H   0  0  0  0  0  0  0  0  0  0  0  0
   -3.3013   -0.1128   -2.1972 H   0  0  0  0  0  0  0  0  0  0  0  0
  1  2  1  0  0  0  0
  1 29  1  0  0  0  0
  1 30  1  0  0  0  0
  1 31  1  0  0  0  0
  2 25  1  0  0  0  0
  2  3  2  0  0  0  0
  3  4  1  0  0  0  0
  3 32  1  0  0  0  0
  4 33  1  0  0  0  0
  4  5  2  0  0  0  0
  5  6  1  0  0  0  0
  5 34  1  0  0  0  0
  6  7  1  0  0  0  0
  6 25  2  0  0  0  0
  7 23  1  0  0  0  0
  7 35  1  0  0  0  0
  7 36  1  0  0  0  0
  8 23  1  0  0  0  0
  8  9  1  0  0  0  0
  8 37  1  0  0  0  0
  8 38  1  0  0  0  0
  9 24  1  0  0  0  0
  9 39  1  0  0  0  0
  9 40  1  0  0  0  0
 10 24  1  0  0  0  0
 10 11  1  0  0  0  0
 10 26  2  0  0  0  0
 11 28  1  0  0  0  0
 11 12  2  0  0  0  0
 12 13  1  0  0  0  0
 12 41  1  0  0  0  0
 13 20  1  0  0  0  0
 13 14  2  0  0  0  0
 14 15  1  0  0  0  0
 14 28  1  0  0  0  0
 15 16  1  0  0  0  0
 15 42  1  0  0  0  0
 15 43  1  0  0  0  0
 16 17  1  0  0  0  0
 16 44  1  0  0  0  0
 16 45  1  0  0  0  0
 17 18  1  0  0  0  0
 17 19  1  0  0  0  0
 17 20  1  0  0  0  0
 18 46  1  0  0  0  0
 18 47  1  0  0  0  0
 18 48  1  0  0  0  0
 19 49  1  0  0  0  0
 19 50  1  0  0  0  0
 19 51  1  0  0  0  0
 20 27  2  0  0  0  0
 21 24  1  0  0  0  0
 21 22  1  0  0  0  0
 21 52  1  0  0  0  0
 21 53  1  0  0  0  0
 22 23  1  0  0  0  0
 22 54  1  0  0  0  0
 22 55  1  0  0  0  0
M  END
>  <score>
0.43491792678833008

$$$$
PV-003050097232
 OpenBabel08202115463D

 52 54  0  0  0  0  0  0  0  0999 V2000
   -4.2075    1.3361   -3.2514 C   0  0  0  0  0  0  0  0  0  0  0  0
   -3.9923   -0.0425   -2.6982 C   0  0  0  0  0  0  0  0  0  0  0  0
   -4.9419   -3.4300   -2.7300 C   0  0  0  0  0  0  0  0  0  0  0  0
   -5.5946   -3.7117   -4.0471 C   0  0  0  0  0  0  0  0  0  0  0  0
   -6.4372   -3.4801   -2.8324 C   0  0  0  0  0  0  0  0  0  0  0  0
   -3.3265   -1.8326   -1.5941 C   0  0  0  0  0  0  0  0  0  0  0  0
   -3.1154   -0.4781   -1.6954 C   0  0  0  0  0  0  0  0  0  0  0  0
   -2.1683    0.3544   -0.9181 C   0  0  0  0  0  0  0  0  0  0  0  0
   -0.3895    0.4926    0.7544 C   0  0  0  0  0  0  0  0  0  0  0  0
    0.9831    0.6242    0.1354 C   0  0  1  0  0  0  0  0  0  0  0  0
    0.9465    1.3048   -1.2232 C   0  0  0  0  0  0  0  0  0  0  0  0
    1.5420    2.5940    1.5542 C   0  0  0  0  0  0  0  0  0  0  0  0
    3.0680    0.6541    1.3513 C   0  0  0  0  0  0  0  0  0  0  0  0
    4.0737    1.4171    2.1812 C   0  0  2  0  0  0  0  0  0  0  0  0
    5.5296    0.8691    2.1027 C   0  0  0  0  0  0  0  0  0  0  0  0
    5.6415    0.9304    3.6479 C   0  0  2  0  0  0  0  0  0  0  0  0
    6.1942   -0.3149    4.2885 C   0  0  0  0  0  0  0  0  0  0  0  0
    4.0865    1.0448    3.6805 C   0  0  0  0  0  0  0  0  0  0  0  0
   -4.7092   -1.0589   -3.1867 N   0  0  0  0  0  0  0  0  0  0  0  0
   -4.2812   -2.1495   -2.5007 N   0  0  0  0  0  0  0  0  0  0  0  0
   -1.3133   -0.2512   -0.0891 N   0  0  0  0  0  0  0  0  0  0  0  0
    1.9279    1.2827    1.0457 N   0  0  0  0  0  0  0  0  0  0  0  0
   -2.1713    1.5841   -1.0362 O   0  0  0  0  0  0  0  0  0  0  0  0
    3.3420   -0.4631    0.9164 O   0  0  0  0  0  0  0  0  0  0  0  0
    6.3291    2.0641    4.1471 F   0  0  0  0  0  0  0  0  0  0  0  0
   -4.9010    1.8653   -2.6318 H   0  0  0  0  0  0  0  0  0  0  0  0
   -4.5995    1.2644   -4.2444 H   0  0  0  0  0  0  0  0  0  0  0  0
   -3.2755    1.8613   -3.2723 H   0  0  0  0  0  0  0  0  0  0  0  0
   -4.4919   -4.2773   -2.2563 H   0  0  0  0  0  0  0  0  0  0  0  0
   -5.5325   -4.6901   -4.4759 H   0  0  0  0  0  0  0  0  0  0  0  0
   -5.5659   -2.9781   -4.8255 H   0  0  0  0  0  0  0  0  0  0  0  0
   -7.0101   -2.5809   -2.7422 H   0  0  0  0  0  0  0  0  0  0  0  0
   -6.9766   -4.2929   -2.3926 H   0  0  0  0  0  0  0  0  0  0  0  0
   -2.8453   -2.4882   -0.9457 H   0  0  0  0  0  0  0  0  0  0  0  0
   -1.3080   -1.2303   -0.0476 H   0  0  0  0  0  0  0  0  0  0  0  0
   -0.2958   -0.0155    1.6914 H   0  0  0  0  0  0  0  0  0  0  0  0
   -0.7874    1.4724    0.9177 H   0  0  0  0  0  0  0  0  0  0  0  0
    1.3444   -0.3695   -0.0286 H   0  0  0  0  0  0  0  0  0  0  0  0
    0.7161    2.3382   -1.0686 H   0  0  0  0  0  0  0  0  0  0  0  0
    0.1944    0.8528   -1.8356 H   0  0  0  0  0  0  0  0  0  0  0  0
    1.8993    1.2127   -1.7013 H   0  0  0  0  0  0  0  0  0  0  0  0
    1.0192    2.4781    2.4806 H   0  0  0  0  0  0  0  0  0  0  0  0
    0.9051    3.0784    0.8438 H   0  0  0  0  0  0  0  0  0  0  0  0
    2.4183    3.1874    1.7112 H   0  0  0  0  0  0  0  0  0  0  0  0
    3.9798    2.4643    1.9823 H   0  0  0  0  0  0  0  0  0  0  0  0
    5.6023   -0.1192    1.6993 H   0  0  0  0  0  0  0  0  0  0  0  0
    6.2115    1.5151    1.5903 H   0  0  0  0  0  0  0  0  0  0  0  0
    7.1997   -0.4707    3.9574 H   0  0  0  0  0  0  0  0  0  0  0  0
    5.5932   -1.1554    4.0107 H   0  0  0  0  0  0  0  0  0  0  0  0
    6.1826   -0.2036    5.3526 H   0  0  0  0  0  0  0  0  0  0  0  0
    3.5869    0.1257    3.9052 H   0  0  0  0  0  0  0  0  0  0  0  0
    3.7201    1.8172    4.3241 H   0  0  0  0  0  0  0  0  0  0  0  0
  1  2  1  0  0  0  0
  1 26  1  0  0  0  0
  1 27  1  0  0  0  0
  1 28  1  0  0  0  0
  2  7  1  0  0  0  0
  2 19  2  0  0  0  0
  3 20  1  0  0  0  0
  3  4  1  0  0  0  0
  3  5  1  0  0  0  0
  3 29  1  0  0  0  0
  4  5  1  0  0  0  0
  4 30  1  0  0  0  0
  4 31  1  0  0  0  0
  5 32  1  0  0  0  0
  5 33  1  0  0  0  0
  6 20  1  0  0  0  0
  6 34  1  0  0  0  0
  6  7  2  0  0  0  0
  7  8  1  0  0  0  0
  8 21  1  0  0  0  0
  8 23  2  0  0  0  0
  9 21  1  0  0  0  0
  9 10  1  0  0  0  0
  9 36  1  0  0  0  0
  9 37  1  0  0  0  0
 10 11  1  0  0  0  0
 10 22  1  0  0  0  0
 10 38  1  6  0  0  0
 11 39  1  0  0  0  0
 11 40  1  0  0  0  0
 11 41  1  0  0  0  0
 12 22  1  0  0  0  0
 12 42  1  0  0  0  0
 12 43  1  0  0  0  0
 12 44  1  0  0  0  0
 13 22  1  0  0  0  0
 13 14  1  0  0  0  0
 13 24  2  0  0  0  0
 14 15  1  0  0  0  0
 14 18  1  0  0  0  0
 14 45  1  6  0  0  0
 15 16  1  0  0  0  0
 15 46  1  0  0  0  0
 15 47  1  0  0  0  0
 16 17  1  0  0  0  0
 16 25  1  1  0  0  0
 16 18  1  0  0  0  0
 17 48  1  0  0  0  0
 17 49  1  0  0  0  0
 17 50  1  0  0  0  0
 18 51  1  0  0  0  0
 18 52  1  0  0  0  0
 19 20  1  0  0  0  0
 21 35  1  0  0  0  0
M  END
>  <score>
0.4349970817565918

$$$$
PV-003882847791
 OpenBabel08202115463D

 54 57  0  0  0  0  0  0  0  0999 V2000
    7.1957    0.7689    3.2971 C   0  0  0  0  0  0  0  0  0  0  0  0
    5.7348    0.4738    2.9993 C   0  0  0  0  0  0  0  0  0  0  0  0
    4.8579    1.7371    2.9347 C   0  0  0  0  0  0  0  0  0  0  0  0
    3.3960    1.3345    2.7028 C   0  0  0  0  0  0  0  0  0  0  0  0
    1.6101    0.8775    1.1191 C   0  0  2  0  0  0  0  0  0  0  0  0
    1.3887   -0.0805   -0.0914 C   0  0  0  0  0  0  0  0  0  0  0  0
    0.3384    0.8891   -0.6778 C   0  0  1  0  0  0  0  0  0  0  0  0
   -1.1063    0.4976   -0.4081 C   0  0  0  0  0  0  0  0  0  0  0  0
   -1.5161   -0.6799   -1.2761 C   0  0  0  0  0  0  0  0  0  0  0  0
   -3.5688   -1.9619   -1.7943 C   0  0  0  0  0  0  0  0  0  0  0  0
   -5.0080   -2.2015   -1.4024 C   0  0  1  0  0  0  0  0  0  0  0  0
   -6.0172   -1.2264   -2.0340 C   0  0  0  0  0  0  0  0  0  0  0  0
   -6.1500   -2.2370   -3.1787 C   0  0  1  0  0  0  0  0  0  0  0  0
   -5.7107   -3.3218   -2.1893 C   0  0  0  0  0  0  0  0  0  0  0  0
   -7.2223   -2.3137   -4.2596 C   0  0  0  0  0  0  0  0  0  0  0  0
   -5.7599   -2.0714   -4.6432 C   0  0  1  0  0  0  0  0  0  0  0  0
    0.9066    1.9765    0.2818 C   0  0  0  0  0  0  0  0  0  0  0  0
    5.3832    2.8512    2.0138 C   0  0  0  0  0  0  0  0  0  0  0  0
    5.0850    2.7491    4.0695 C   0  0  0  0  0  0  0  0  0  0  0  0
    2.6200    1.2697    3.6547 O   0  0  0  0  0  0  0  0  0  0  0  0
   -3.0750   -2.5117   -2.7779 O   0  0  0  0  0  0  0  0  0  0  0  0
    5.5200    3.7662    3.1270 O   0  0  0  0  0  0  0  0  0  0  0  0
    3.0149    1.1525    1.4335 N   0  0  0  0  0  0  0  0  0  0  0  0
   -2.8851   -1.1248   -1.0089 N   0  0  0  0  0  0  0  0  0  0  0  0
   -5.3484   -0.7813   -5.1385 F   0  0  0  0  0  0  0  0  0  0  0  0
    7.2863    1.1585    4.2895 H   0  0  0  0  0  0  0  0  0  0  0  0
    7.5640    1.4889    2.5965 H   0  0  0  0  0  0  0  0  0  0  0  0
    7.7656   -0.1331    3.2150 H   0  0  0  0  0  0  0  0  0  0  0  0
    5.3539   -0.1646    3.7690 H   0  0  0  0  0  0  0  0  0  0  0  0
    5.6755   -0.0289    2.0566 H   0  0  0  0  0  0  0  0  0  0  0  0
    3.6765    1.2031    0.7123 H   0  0  0  0  0  0  0  0  0  0  0  0
    1.0926    0.5962    2.0124 H   0  0  0  0  0  0  0  0  0  0  0  0
    0.9947   -1.0382    0.1777 H   0  0  0  0  0  0  0  0  0  0  0  0
    2.2536   -0.2103   -0.7078 H   0  0  0  0  0  0  0  0  0  0  0  0
    0.4619    1.1041   -1.7187 H   0  0  0  0  0  0  0  0  0  0  0  0
   -1.7418    1.3309   -0.6244 H   0  0  0  0  0  0  0  0  0  0  0  0
   -1.2101    0.2271    0.6219 H   0  0  0  0  0  0  0  0  0  0  0  0
   -0.8480   -1.4940   -1.0872 H   0  0  0  0  0  0  0  0  0  0  0  0
   -1.4444   -0.3899   -2.3036 H   0  0  0  0  0  0  0  0  0  0  0  0
   -3.3281   -0.7872   -0.2026 H   0  0  0  0  0  0  0  0  0  0  0  0
   -5.0785   -2.2906   -0.3384 H   0  0  0  0  0  0  0  0  0  0  0  0
   -5.6084   -0.2791   -2.3174 H   0  0  0  0  0  0  0  0  0  0  0  0
   -6.9102   -1.0741   -1.4646 H   0  0  0  0  0  0  0  0  0  0  0  0
   -6.5111   -3.8027   -1.6668 H   0  0  0  0  0  0  0  0  0  0  0  0
   -5.0549   -4.0621   -2.5977 H   0  0  0  0  0  0  0  0  0  0  0  0
   -7.9394   -1.5258   -4.3591 H   0  0  0  0  0  0  0  0  0  0  0  0
   -7.6871   -3.2503   -4.4869 H   0  0  0  0  0  0  0  0  0  0  0  0
   -5.2022   -2.8386   -5.1385 H   0  0  0  0  0  0  0  0  0  0  0  0
    0.1566    2.5198    0.8178 H   0  0  0  0  0  0  0  0  0  0  0  0
    1.5787    2.6641   -0.1877 H   0  0  0  0  0  0  0  0  0  0  0  0
    4.6749    3.1712    1.2784 H   0  0  0  0  0  0  0  0  0  0  0  0
    6.3107    2.6130    1.5363 H   0  0  0  0  0  0  0  0  0  0  0  0
    4.1933    3.0075    4.6014 H   0  0  0  0  0  0  0  0  0  0  0  0
    5.8428    2.4538    4.7649 H   0  0  0  0  0  0  0  0  0  0  0  0
  1  2  1  0  0  0  0
  1 26  1  0  0  0  0
  1 27  1  0  0  0  0
  1 28  1  0  0  0  0
  2  3  1  0  0  0  0
  2 29  1  0  0  0  0
  2 30  1  0  0  0  0
  3  4  1  0  0  0  0
  3 18  1  0  0  0  0
  3 19  1  0  0  0  0
  4 23  1  0  0  0  0
  4 20  2  0  0  0  0
  5 23  1  0  0  0  0
  5  6  1  0  0  0  0
  5 17  1  0  0  0  0
  5 32  1  1  0  0  0
  6  7  1  0  0  0  0
  6 33  1  0  0  0  0
  6 34  1  0  0  0  0
  7  8  1  0  0  0  0
  7 17  1  0  0  0  0
  7 35  1  6  0  0  0
  8  9  1  0  0  0  0
  8 36  1  0  0  0  0
  8 37  1  0  0  0  0
  9 24  1  0  0  0  0
  9 38  1  0  0  0  0
  9 39  1  0  0  0  0
 10 24  1  0  0  0  0
 10 11  1  0  0  0  0
 10 21  2  0  0  0  0
 11 12  1  0  0  0  0
 11 14  1  0  0  0  0
 11 41  1  1  0  0  0
 12 42  1  0  0  0  0
 12 43  1  0  0  0  0
 13 12  1  1  0  0  0
 13 14  1  0  0  0  0
 13 15  1  0  0  0  0
 13 16  1  0  0  0  0
 14 44  1  0  0  0  0
 14 45  1  0  0  0  0
 15 16  1  0  0  0  0
 15 46  1  0  0  0  0
 15 47  1  0  0  0  0
 16 25  1  0  0  0  0
 16 48  1  6  0  0  0
 17 49  1  0  0  0  0
 17 50  1  0  0  0  0
 18 22  1  0  0  0  0
 18 51  1  0  0  0  0
 18 52  1  0  0  0  0
 19 22  1  0  0  0  0
 19 53  1  0  0  0  0
 19 54  1  0  0  0  0
 23 31  1  0  0  0  0
 24 40  1  0  0  0  0
M  END
>  <score>
0.4350314736366272

$$$$
Z4225878328
 OpenBabel08202115463D

 42 44  0  0  0  0  0  0  0  0999 V2000
   -6.3275   -3.3643   -2.6138 C   0  0  0  0  0  0  0  0  0  0  0  0
   -5.3097   -2.2703   -2.4572 C   0  0  0  0  0  0  0  0  0  0  0  0
   -5.3688   -0.9603   -2.8231 C   0  0  0  0  0  0  0  0  0  0  0  0
   -3.3518   -0.9383   -1.9579 C   0  0  0  0  0  0  0  0  0  0  0  0
   -1.8813    0.8543   -0.9481 C   0  0  0  0  0  0  0  0  0  0  0  0
   -1.2026    0.7277    0.4025 C   0  0  0  0  0  0  0  0  0  0  0  0
    1.2988    0.4230    0.7105 C   0  0  0  0  0  0  0  0  0  0  0  0
    1.7420    1.6660    0.2996 C   0  0  0  0  0  0  0  0  0  0  0  0
    2.9791    2.1333    0.7153 C   0  0  0  0  0  0  0  0  0  0  0  0
    3.7717    1.3538    1.5366 C   0  0  0  0  0  0  0  0  0  0  0  0
    5.1156    2.5449    3.6743 C   0  0  0  0  0  0  0  0  0  0  0  0
    3.3274    0.1071    1.9488 C   0  0  0  0  0  0  0  0  0  0  0  0
    2.0939   -0.3586    1.5342 C   0  0  0  0  0  0  0  0  0  0  0  0
   -0.1794   -1.3725   -0.3019 C   0  0  0  0  0  0  0  0  0  0  0  0
   -0.8582   -1.2459   -1.6524 C   0  0  0  0  0  0  0  0  0  0  0  0
   -4.2605   -0.2067   -2.5390 N   0  0  0  0  0  0  0  0  0  0  0  0
   -2.0949   -0.4668   -1.5406 N   0  0  0  0  0  0  0  0  0  0  0  0
    0.0342   -0.0514    0.2906 N   0  0  0  0  0  0  0  0  0  0  0  0
    6.2234    0.7301    2.1087 N   0  0  0  0  0  0  0  0  0  0  0  0
    5.3095    1.9305    2.0472 S   0  0  1  0  0  0  0  0  0  0  0  0
   -3.7960   -2.5914   -1.7180 S   0  0  0  0  0  0  0  0  0  0  0  0
    5.6385    3.0316    1.1961 O   0  0  0  0  0  0  0  0  0  0  0  0
    4.3648    3.6731    3.5605 F   0  0  0  0  0  0  0  0  0  0  0  0
    6.3112    2.9284    4.1971 F   0  0  0  0  0  0  0  0  0  0  0  0
   -6.6625   -3.3977   -3.6294 H   0  0  0  0  0  0  0  0  0  0  0  0
   -7.1600   -3.1714   -1.9700 H   0  0  0  0  0  0  0  0  0  0  0  0
   -5.8846   -4.3030   -2.3536 H   0  0  0  0  0  0  0  0  0  0  0  0
   -6.2053   -0.5558   -3.2904 H   0  0  0  0  0  0  0  0  0  0  0  0
   -1.2634    1.4364   -1.5994 H   0  0  0  0  0  0  0  0  0  0  0  0
   -2.8261    1.3408   -0.8229 H   0  0  0  0  0  0  0  0  0  0  0  0
   -1.8659    0.2374    1.0841 H   0  0  0  0  0  0  0  0  0  0  0  0
   -0.9698    1.7048    0.7712 H   0  0  0  0  0  0  0  0  0  0  0  0
    1.1473    2.2507   -0.3217 H   0  0  0  0  0  0  0  0  0  0  0  0
    3.3107    3.0703    0.4093 H   0  0  0  0  0  0  0  0  0  0  0  0
    5.7991   -0.1065    1.8251 H   0  0  0  0  0  0  0  0  0  0  0  0
    4.6352    1.7829    4.2518 H   0  0  0  0  0  0  0  0  0  0  0  0
    3.9221   -0.4777    2.5701 H   0  0  0  0  0  0  0  0  0  0  0  0
    1.7622   -1.2956    1.8402 H   0  0  0  0  0  0  0  0  0  0  0  0
   -0.7974   -1.9546    0.3494 H   0  0  0  0  0  0  0  0  0  0  0  0
    0.7653   -1.8590   -0.4270 H   0  0  0  0  0  0  0  0  0  0  0  0
   -1.0910   -2.2230   -2.0212 H   0  0  0  0  0  0  0  0  0  0  0  0
   -0.1949   -0.7556   -2.3340 H   0  0  0  0  0  0  0  0  0  0  0  0
  1  2  1  0  0  0  0
  1 25  1  0  0  0  0
  1 26  1  0  0  0  0
  1 27  1  0  0  0  0
  2 21  1  0  0  0  0
  2  3  2  0  0  0  0
  3 16  1  0  0  0  0
  3 28  1  0  0  0  0
  4 17  1  0  0  0  0
  4 21  1  0  0  0  0
  4 16  2  0  0  0  0
  5 17  1  0  0  0  0
  5  6  1  0  0  0  0
  5 29  1  0  0  0  0
  5 30  1  0  0  0  0
  6 18  1  0  0  0  0
  6 31  1  0  0  0  0
  6 32  1  0  0  0  0
  7 18  1  0  0  0  0
  7 13  1  0  0  0  0
  7  8  2  0  0  0  0
  8  9  1  0  0  0  0
  8 33  1  0  0  0  0
  9 34  1  0  0  0  0
  9 10  2  0  0  0  0
 10 12  1  0  0  0  0
 11 23  1  0  0  0  0
 11 24  1  0  0  0  0
 11 36  1  0  0  0  0
 12 37  1  0  0  0  0
 12 13  2  0  0  0  0
 13 38  1  0  0  0  0
 14 18  1  0  0  0  0
 14 15  1  0  0  0  0
 14 39  1  0  0  0  0
 14 40  1  0  0  0  0
 15 17  1  0  0  0  0
 15 41  1  0  0  0  0
 15 42  1  0  0  0  0
 19 35  1  0  0  0  0
 20 10  1  0  0  0  0
 20 11  1  0  0  0  0
 20 19  2  0  0  0  0
 20 22  2  6  0  0  0
M  END
>  <score>
0.43507486581802368

$$$$
PV-003705113147
 OpenBabel08202115463D

 53 55  0  0  0  0  0  0  0  0999 V2000
   -4.7981   -3.7552   -3.8151 C   0  0  0  0  0  0  0  0  0  0  0  0
   -5.4439   -2.6053   -3.0787 C   0  0  0  0  0  0  0  0  0  0  0  0
   -6.7860   -2.3249   -2.9808 C   0  0  0  0  0  0  0  0  0  0  0  0
   -4.8022   -1.5955   -2.3488 C   0  0  0  0  0  0  0  0  0  0  0  0
   -3.3447   -1.3706   -2.1025 C   0  0  0  0  0  0  0  0  0  0  0  0
   -1.6366    0.0314   -1.0322 C   0  0  1  0  0  0  0  0  0  0  0  0
   -1.5811    1.5332   -0.8569 C   0  0  0  0  0  0  0  0  0  0  0  0
   -0.2951    2.1937   -1.3569 C   0  0  0  0  0  0  0  0  0  0  0  0
    0.9667    1.5001   -0.8243 C   0  0  0  0  0  0  0  0  0  0  0  0
    0.8506    0.8237    0.5645 C   0  0  1  0  0  0  0  0  0  0  0  0
    2.4952    1.5410    2.2754 C   0  0  0  0  0  0  0  0  0  0  0  0
    3.9035    1.3044    2.7853 C   0  0  2  0  0  0  0  0  0  0  0  0
    4.1210    2.1042    4.0922 C   0  0  0  0  0  0  0  0  0  0  0  0
    5.0078    1.5199    1.7193 C   0  0  0  0  0  0  0  0  0  0  0  0
    5.4088    0.0026    1.8198 C   0  0  1  0  0  0  0  0  0  0  0  0
    6.7645   -0.2251    2.3106 C   0  0  0  0  0  0  0  0  0  0  0  0
    4.3044   -0.2128    2.8858 C   0  0  0  0  0  0  0  0  0  0  0  0
    0.3250   -0.5744    0.5241 C   0  0  0  0  0  0  0  0  0  0  0  0
   -1.1425   -0.7323    0.1873 C   0  0  0  0  0  0  0  0  0  0  0  0
   -6.8986   -1.2046   -2.2282 N   0  0  0  0  0  0  0  0  0  0  0  0
   -5.6875   -0.7434   -1.8235 N   0  0  0  0  0  0  0  0  0  0  0  0
   -3.0266   -0.3563   -1.2932 N   0  0  0  0  0  0  0  0  0  0  0  0
    2.1812    0.7960    1.1738 N   0  0  0  0  0  0  0  0  0  0  0  0
    7.8076   -0.3804    2.7358 N   0  0  0  0  0  0  0  0  0  0  0  0
   -2.4948   -2.0960   -2.6294 O   0  0  0  0  0  0  0  0  0  0  0  0
    1.7016    2.3137    2.7799 O   0  0  0  0  0  0  0  0  0  0  0  0
   -3.8455   -3.9695   -3.3775 H   0  0  0  0  0  0  0  0  0  0  0  0
   -4.6666   -3.4909   -4.8435 H   0  0  0  0  0  0  0  0  0  0  0  0
   -5.4248   -4.6197   -3.7458 H   0  0  0  0  0  0  0  0  0  0  0  0
   -7.5653   -2.8686   -3.4035 H   0  0  0  0  0  0  0  0  0  0  0  0
   -7.7517   -0.7782   -2.0028 H   0  0  0  0  0  0  0  0  0  0  0  0
   -3.7473    0.1461   -0.8590 H   0  0  0  0  0  0  0  0  0  0  0  0
   -1.0278   -0.2358   -1.8706 H   0  0  0  0  0  0  0  0  0  0  0  0
   -1.6820    1.7498    0.1860 H   0  0  0  0  0  0  0  0  0  0  0  0
   -2.4035    1.9606   -1.3916 H   0  0  0  0  0  0  0  0  0  0  0  0
   -0.2867    3.2145   -1.0365 H   0  0  0  0  0  0  0  0  0  0  0  0
   -0.2827    2.1548   -2.4261 H   0  0  0  0  0  0  0  0  0  0  0  0
    1.7408    2.2363   -0.7633 H   0  0  0  0  0  0  0  0  0  0  0  0
    1.2457    0.7462   -1.5305 H   0  0  0  0  0  0  0  0  0  0  0  0
    0.1928    1.4117    1.1698 H   0  0  0  0  0  0  0  0  0  0  0  0
    2.8708    0.2232    0.7779 H   0  0  0  0  0  0  0  0  0  0  0  0
    5.0951    1.8940    4.4816 H   0  0  0  0  0  0  0  0  0  0  0  0
    3.3809    1.8204    4.8110 H   0  0  0  0  0  0  0  0  0  0  0  0
    4.0372    3.1511    3.8875 H   0  0  0  0  0  0  0  0  0  0  0  0
    4.6359    1.8098    0.7588 H   0  0  0  0  0  0  0  0  0  0  0  0
    5.7801    2.1958    2.0222 H   0  0  0  0  0  0  0  0  0  0  0  0
    5.2585   -0.5504    0.9162 H   0  0  0  0  0  0  0  0  0  0  0  0
    3.5322   -0.8887    2.5830 H   0  0  0  0  0  0  0  0  0  0  0  0
    4.6763   -0.5027    3.8463 H   0  0  0  0  0  0  0  0  0  0  0  0
    0.8872   -1.1123   -0.2104 H   0  0  0  0  0  0  0  0  0  0  0  0
    0.4865   -1.0108    1.4876 H   0  0  0  0  0  0  0  0  0  0  0  0
   -1.7090   -0.4002    1.0321 H   0  0  0  0  0  0  0  0  0  0  0  0
   -1.3288   -1.7724    0.0187 H   0  0  0  0  0  0  0  0  0  0  0  0
  1  2  1  0  0  0  0
  1 27  1  0  0  0  0
  1 28  1  0  0  0  0
  1 29  1  0  0  0  0
  2  4  1  0  0  0  0
  2  3  2  0  0  0  0
  3 20  1  0  0  0  0
  3 30  1  0  0  0  0
  4  5  1  0  0  0  0
  4 21  2  0  0  0  0
  5 22  1  0  0  0  0
  5 25  2  0  0  0  0
  6 22  1  0  0  0  0
  6  7  1  0  0  0  0
  6 19  1  0  0  0  0
  6 33  1  6  0  0  0
  7  8  1  0  0  0  0
  7 34  1  0  0  0  0
  7 35  1  0  0  0  0
  8  9  1  0  0  0  0
  8 36  1  0  0  0  0
  8 37  1  0  0  0  0
  9 10  1  0  0  0  0
  9 38  1  0  0  0  0
  9 39  1  0  0  0  0
 10 23  1  0  0  0  0
 10 18  1  0  0  0  0
 10 40  1  1  0  0  0
 11 23  1  0  0  0  0
 11 26  2  0  0  0  0
 12 11  1  6  0  0  0
 12 13  1  0  0  0  0
 12 14  1  0  0  0  0
 12 17  1  0  0  0  0
 13 42  1  0  0  0  0
 13 43  1  0  0  0  0
 13 44  1  0  0  0  0
 14 15  1  0  0  0  0
 14 45  1  0  0  0  0
 14 46  1  0  0  0  0
 15 16  1  0  0  0  0
 15 17  1  0  0  0  0
 15 47  1  6  0  0  0
 16 24  3  0  0  0  0
 17 48  1  0  0  0  0
 17 49  1  0  0  0  0
 18 19  1  0  0  0  0
 18 50  1  0  0  0  0
 18 51  1  0  0  0  0
 19 52  1  0  0  0  0
 19 53  1  0  0  0  0
 20 21  1  0  0  0  0
 20 31  1  0  0  0  0
 22 32  1  0  0  0  0
 23 41  1  0  0  0  0
M  END
>  <score>
0.43511885404586792

$$$$
Z3802999737
 OpenBabel08202115463D

 54 55  0  0  0  0  0  0  0  0999 V2000
   -1.2358    1.3838    1.3711 C   0  0  0  0  0  0  0  0  0  0  0  0
   -0.1813    0.7362    0.4858 C   0  0  1  0  0  0  0  0  0  0  0  0
   -0.7239    0.5502   -0.9147 C   0  0  0  0  0  0  0  0  0  0  0  0
   -1.5902   -1.6044   -0.4872 C   0  0  0  0  0  0  0  0  0  0  0  0
   -2.5615   -0.3023   -2.2152 C   0  0  0  0  0  0  0  0  0  0  0  0
   -3.7404   -1.2492   -2.3319 C   0  0  0  0  0  0  0  0  0  0  0  0
   -4.2220   -1.4330   -3.7503 C   0  0  0  0  0  0  0  0  0  0  0  0
   -4.9194   -3.7869   -3.5263 C   0  0  0  0  0  0  0  0  0  0  0  0
   -6.5331   -1.9655   -3.0815 C   0  0  0  0  0  0  0  0  0  0  0  0
    1.9149    1.3766    1.6630 C   0  0  0  0  0  0  0  0  0  0  0  0
    3.2134    2.1388    1.6103 C   0  0  0  0  0  0  0  0  0  0  0  0
    4.4530    1.7850    2.0115 C   0  0  0  0  0  0  0  0  0  0  0  0
    5.0875    0.5783    2.6454 C   0  0  0  0  0  0  0  0  0  0  0  0
    5.1232    0.6051    4.2094 C   0  0  0  0  0  0  0  0  0  0  0  0
    6.5766    1.1036    4.1486 C   0  0  0  0  0  0  0  0  0  0  0  0
    6.6293    0.6054    2.6801 C   0  0  0  0  0  0  0  0  0  0  0  0
    4.4864    3.7905    1.1802 C   0  0  0  0  0  0  0  0  0  0  0  0
   -1.9530   -0.2408   -0.8788 N   0  0  0  0  0  0  0  0  0  0  0  0
   -5.3380   -2.3980   -3.8480 N   0  0  0  0  0  0  0  0  0  0  0  0
    1.0528    1.5593    0.4677 N   0  0  0  0  0  0  0  0  0  0  0  0
    3.2404    3.4177    1.0818 N   0  0  0  0  0  0  0  0  0  0  0  0
    5.2906    2.8479    1.7388 O   0  0  0  0  0  0  0  0  0  0  0  0
   -1.4532    2.3663    1.0074 H   0  0  0  0  0  0  0  0  0  0  0  0
   -0.8686    1.4481    2.3740 H   0  0  0  0  0  0  0  0  0  0  0  0
   -2.1273    0.7923    1.3544 H   0  0  0  0  0  0  0  0  0  0  0  0
    0.0511   -0.2280    0.8873 H   0  0  0  0  0  0  0  0  0  0  0  0
    0.0052    0.0434   -1.5117 H   0  0  0  0  0  0  0  0  0  0  0  0
   -0.9327    1.5083   -1.3429 H   0  0  0  0  0  0  0  0  0  0  0  0
   -2.4787   -2.1832   -0.3438 H   0  0  0  0  0  0  0  0  0  0  0  0
   -1.0318   -1.5766    0.4251 H   0  0  0  0  0  0  0  0  0  0  0  0
   -0.9950   -2.0499   -1.2568 H   0  0  0  0  0  0  0  0  0  0  0  0
   -1.8106   -0.6181   -2.9090 H   0  0  0  0  0  0  0  0  0  0  0  0
   -2.8965    0.6803   -2.4742 H   0  0  0  0  0  0  0  0  0  0  0  0
   -4.5476   -0.8596   -1.7474 H   0  0  0  0  0  0  0  0  0  0  0  0
   -3.4484   -2.2036   -1.9463 H   0  0  0  0  0  0  0  0  0  0  0  0
   -3.4074   -1.7890   -4.3458 H   0  0  0  0  0  0  0  0  0  0  0  0
   -4.5523   -0.4872   -4.1259 H   0  0  0  0  0  0  0  0  0  0  0  0
   -4.5642   -3.8284   -2.5179 H   0  0  0  0  0  0  0  0  0  0  0  0
   -4.1373   -4.0867   -4.1923 H   0  0  0  0  0  0  0  0  0  0  0  0
   -5.7551   -4.4457   -3.6373 H   0  0  0  0  0  0  0  0  0  0  0  0
   -6.3334   -2.0454   -2.0334 H   0  0  0  0  0  0  0  0  0  0  0  0
   -7.3641   -2.5902   -3.3347 H   0  0  0  0  0  0  0  0  0  0  0  0
   -6.7635   -0.9491   -3.3240 H   0  0  0  0  0  0  0  0  0  0  0  0
    0.7936    2.5029    0.4156 H   0  0  0  0  0  0  0  0  0  0  0  0
    2.1410    0.3350    1.7575 H   0  0  0  0  0  0  0  0  0  0  0  0
    1.3690    1.7030    2.5234 H   0  0  0  0  0  0  0  0  0  0  0  0
    4.6660   -0.3100    2.2235 H   0  0  0  0  0  0  0  0  0  0  0  0
    5.0066   -0.3546    4.6681 H   0  0  0  0  0  0  0  0  0  0  0  0
    4.4391    1.2983    4.6527 H   0  0  0  0  0  0  0  0  0  0  0  0
    7.2472    0.5996    4.8128 H   0  0  0  0  0  0  0  0  0  0  0  0
    6.6885    2.1615    4.2630 H   0  0  0  0  0  0  0  0  0  0  0  0
    7.0708    1.3007    1.9970 H   0  0  0  0  0  0  0  0  0  0  0  0
    7.0872   -0.3540    2.5590 H   0  0  0  0  0  0  0  0  0  0  0  0
    4.8311    4.7188    0.8622 H   0  0  0  0  0  0  0  0  0  0  0  0
  1  2  1  0  0  0  0
  1 23  1  0  0  0  0
  1 24  1  0  0  0  0
  1 25  1  0  0  0  0
  2  3  1  0  0  0  0
  2 20  1  0  0  0  0
  2 26  1  1  0  0  0
  3 18  1  0  0  0  0
  3 27  1  0  0  0  0
  3 28  1  0  0  0  0
  4 18  1  0  0  0  0
  4 29  1  0  0  0  0
  4 30  1  0  0  0  0
  4 31  1  0  0  0  0
  5 18  1  0  0  0  0
  5  6  1  0  0  0  0
  5 32  1  0  0  0  0
  5 33  1  0  0  0  0
  6  7  1  0  0  0  0
  6 34  1  0  0  0  0
  6 35  1  0  0  0  0
  7 19  1  0  0  0  0
  7 36  1  0  0  0  0
  7 37  1  0  0  0  0
  8 19  1  0  0  0  0
  8 38  1  0  0  0  0
  8 39  1  0  0  0  0
  8 40  1  0  0  0  0
  9 19  1  0  0  0  0
  9 41  1  0  0  0  0
  9 42  1  0  0  0  0
  9 43  1  0  0  0  0
 10 20  1  0  0  0  0
 10 11  1  0  0  0  0
 10 45  1  0  0  0  0
 10 46  1  0  0  0  0
 11 21  1  0  0  0  0
 11 12  2  0  0  0  0
 12 13  1  0  0  0  0
 12 22  1  0  0  0  0
 13 14  1  0  0  0  0
 13 16  1  0  0  0  0
 13 47  1  0  0  0  0
 14 15  1  0  0  0  0
 14 48  1  0  0  0  0
 14 49  1  0  0  0  0
 15 16  1  0  0  0  0
 15 50  1  0  0  0  0
 15 51  1  0  0  0  0
 16 52  1  0  0  0  0
 16 53  1  0  0  0  0
 17 22  1  0  0  0  0
 17 54  1  0  0  0  0
 17 21  2  0  0  0  0
 20 44  1  0  0  0  0
M  END
>  <score>
0.43537819385528564

$$$$
PV-003680573216
 OpenBabel08202115463D

 55 57  0  0  0  0  0  0  0  0999 V2000
   -6.2613   -4.8982   -2.5197 C   0  0  0  0  0  0  0  0  0  0  0  0
   -5.9896   -3.7278   -3.5140 C   0  0  1  0  0  0  0  0  0  0  0  0
   -7.2548   -3.3443   -4.1327 C   0  0  0  0  0  0  0  0  0  0  0  0
   -5.2556   -2.5437   -2.9119 C   0  0  0  0  0  0  0  0  0  0  0  0
   -3.0192   -1.6332   -2.2641 C   0  0  2  0  0  0  0  0  0  0  0  0
   -2.8937   -0.1921   -2.8434 C   0  0  0  0  0  0  0  0  0  0  0  0
   -1.8943   -0.3196   -1.6799 C   0  0  1  0  0  0  0  0  0  0  0  0
   -0.0574    0.4514   -0.3081 C   0  0  0  0  0  0  0  0  0  0  0  0
    0.8067    1.6210    0.1214 C   0  0  0  0  0  0  0  0  0  0  0  0
    2.1210    1.1554    0.5840 C   0  0  0  0  0  0  0  0  0  0  0  0
    3.1855    2.1713    1.0003 C   0  0  1  0  0  0  0  0  0  0  0  0
    2.6948    2.9944    2.1869 C   0  0  0  0  0  0  0  0  0  0  0  0
    3.6690    2.6550    3.2991 C   0  0  2  0  0  0  0  0  0  0  0  0
    3.9182    3.8653    4.1844 C   0  0  0  0  0  0  0  0  0  0  0  0
    5.7608    1.4681    3.4799 C   0  0  0  0  0  0  0  0  0  0  0  0
    4.4329    1.4603    1.4664 C   0  0  2  0  0  0  0  0  0  0  0  0
    4.1136    0.0390    1.9047 C   0  0  0  0  0  0  0  0  0  0  0  0
   -2.9829   -1.0067   -0.8379 C   0  0  0  0  0  0  0  0  0  0  0  0
   -1.4625   -1.6929   -2.2191 C   0  0  0  0  0  0  0  0  0  0  0  0
   -8.2439   -3.0643   -4.6188 N   0  0  0  0  0  0  0  0  0  0  0  0
   -3.9339   -2.7032   -2.7394 N   0  0  0  0  0  0  0  0  0  0  0  0
   -0.9990    0.7276   -1.2148 N   0  0  0  0  0  0  0  0  0  0  0  0
    4.8937    2.2633    2.6000 N   0  0  0  0  0  0  0  0  0  0  0  0
   -5.8461   -1.5197   -2.6100 O   0  0  0  0  0  0  0  0  0  0  0  0
    0.1122   -0.6717    0.1590 O   0  0  0  0  0  0  0  0  0  0  0  0
   -6.8919   -4.5540   -1.7267 H   0  0  0  0  0  0  0  0  0  0  0  0
   -5.3336   -5.2431   -2.1131 H   0  0  0  0  0  0  0  0  0  0  0  0
   -6.7448   -5.7004   -3.0370 H   0  0  0  0  0  0  0  0  0  0  0  0
   -5.3623   -4.1242   -4.2850 H   0  0  0  0  0  0  0  0  0  0  0  0
   -3.5478   -3.5814   -2.9397 H   0  0  0  0  0  0  0  0  0  0  0  0
   -2.4979   -0.0843   -3.8316 H   0  0  0  0  0  0  0  0  0  0  0  0
   -3.7244    0.4704   -2.7171 H   0  0  0  0  0  0  0  0  0  0  0  0
   -1.0866    1.6379   -1.5671 H   0  0  0  0  0  0  0  0  0  0  0  0
    0.3194    2.1435    0.9179 H   0  0  0  0  0  0  0  0  0  0  0  0
    0.9411    2.2817   -0.7095 H   0  0  0  0  0  0  0  0  0  0  0  0
    2.5411    0.5751   -0.2109 H   0  0  0  0  0  0  0  0  0  0  0  0
    1.9457    0.5261    1.4315 H   0  0  0  0  0  0  0  0  0  0  0  0
    3.4111    2.8115    0.1731 H   0  0  0  0  0  0  0  0  0  0  0  0
    1.6978    2.7151    2.4567 H   0  0  0  0  0  0  0  0  0  0  0  0
    2.7243    4.0401    1.9620 H   0  0  0  0  0  0  0  0  0  0  0  0
    3.2978    1.8473    3.8946 H   0  0  0  0  0  0  0  0  0  0  0  0
    3.0240    4.4491    4.2512 H   0  0  0  0  0  0  0  0  0  0  0  0
    4.7015    4.4600    3.7628 H   0  0  0  0  0  0  0  0  0  0  0  0
    4.2045    3.5387    5.1623 H   0  0  0  0  0  0  0  0  0  0  0  0
    6.5201    0.9906    2.8965 H   0  0  0  0  0  0  0  0  0  0  0  0
    5.1755    0.7249    3.9801 H   0  0  0  0  0  0  0  0  0  0  0  0
    6.2182    2.1095    4.2040 H   0  0  0  0  0  0  0  0  0  0  0  0
    5.1703    1.4379    0.6914 H   0  0  0  0  0  0  0  0  0  0  0  0
    5.0219   -0.4741    2.1426 H   0  0  0  0  0  0  0  0  0  0  0  0
    3.6116   -0.4744    1.1114 H   0  0  0  0  0  0  0  0  0  0  0  0
    3.4826    0.0656    2.7685 H   0  0  0  0  0  0  0  0  0  0  0  0
   -2.6675   -1.6298   -0.0272 H   0  0  0  0  0  0  0  0  0  0  0  0
   -3.8216   -0.4177   -0.5303 H   0  0  0  0  0  0  0  0  0  0  0  0
   -0.9372   -1.7203   -3.1509 H   0  0  0  0  0  0  0  0  0  0  0  0
   -1.0092   -2.3779   -1.5334 H   0  0  0  0  0  0  0  0  0  0  0  0
  1  2  1  0  0  0  0
  1 26  1  0  0  0  0
  1 27  1  0  0  0  0
  1 28  1  0  0  0  0
  2  3  1  0  0  0  0
  2  4  1  0  0  0  0
  2 29  1  6  0  0  0
  3 20  3  0  0  0  0
  4 21  1  0  0  0  0
  4 24  2  0  0  0  0
  5 21  1  6  0  0  0
  5  6  1  0  0  0  0
  5 18  1  0  0  0  0
  5 19  1  0  0  0  0
  6  7  1  0  0  0  0
  6 31  1  0  0  0  0
  6 32  1  0  0  0  0
  7 22  1  1  0  0  0
  7 18  1  0  0  0  0
  7 19  1  0  0  0  0
  8 22  1  0  0  0  0
  8  9  1  0  0  0  0
  8 25  2  0  0  0  0
  9 10  1  0  0  0  0
  9 34  1  0  0  0  0
  9 35  1  0  0  0  0
 10 11  1  0  0  0  0
 10 36  1  0  0  0  0
 10 37  1  0  0  0  0
 11 12  1  0  0  0  0
 11 16  1  0  0  0  0
 11 38  1  6  0  0  0
 12 13  1  0  0  0  0
 12 39  1  0  0  0  0
 12 40  1  0  0  0  0
 13 14  1  0  0  0  0
 13 23  1  0  0  0  0
 13 41  1  1  0  0  0
 14 42  1  0  0  0  0
 14 43  1  0  0  0  0
 14 44  1  0  0  0  0
 15 23  1  0  0  0  0
 15 45  1  0  0  0  0
 15 46  1  0  0  0  0
 15 47  1  0  0  0  0
 16 23  1  0  0  0  0
 16 17  1  0  0  0  0
 16 48  1  6  0  0  0
 17 49  1  0  0  0  0
 17 50  1  0  0  0  0
 17 51  1  0  0  0  0
 18 52  1  0  0  0  0
 18 53  1  0  0  0  0
 19 54  1  0  0  0  0
 19 55  1  0  0  0  0
 21 30  1  0  0  0  0
 22 33  1  0  0  0  0
M  END
>  <score>
0.43556702136993408

$$$$
PV-004046315644
 OpenBabel08202115463D

 60 63  0  0  0  0  0  0  0  0999 V2000
   -4.1728    0.6092   -3.4934 O   0  0  0  0  0  0  0  0  0  0  0  0
    3.6422    2.1398    0.9347 O   0  0  0  0  0  0  0  0  0  0  0  0
   -5.3257   -1.6154   -4.3534 O   0  0  0  0  0  0  0  0  0  0  0  0
   -3.8756   -0.4118   -2.8745 C   0  0  0  0  0  0  0  0  0  0  0  0
   -2.6211    0.8345   -1.1774 C   0  0  0  0  0  0  0  0  0  0  0  0
   -1.6508    0.5854   -0.0456 C   0  0  2  0  0  0  0  0  0  0  0  0
   -1.0111    1.9406    0.3802 C   0  0  0  0  0  0  0  0  0  0  0  0
    0.1361    1.6912    1.3718 C   0  0  0  0  0  0  0  0  0  0  0  0
    1.2151    0.7580    0.8052 C   0  0  2  0  0  0  0  0  0  0  0  0
    3.4357    1.2318    1.7237 C   0  0  0  0  0  0  0  0  0  0  0  0
    4.5092    0.7776    2.7052 C   0  0  0  0  0  0  0  0  0  0  0  0
    5.7154    1.7250    2.8880 C   0  0  0  0  0  0  0  0  0  0  0  0
    5.3385    3.1723    3.2996 C   0  0  0  0  0  0  0  0  0  0  0  0
    6.2691    3.6990    2.1973 C   0  0  0  0  0  0  0  0  0  0  0  0
    6.2841    2.2945    1.5738 C   0  0  0  0  0  0  0  0  0  0  0  0
    4.7299   -0.6915    2.8844 C   0  0  0  0  0  0  0  0  0  0  0  0
    3.9925    0.0843    3.9304 C   0  0  0  0  0  0  0  0  0  0  0  0
    0.5670   -0.5950    0.4794 C   0  0  0  0  0  0  0  0  0  0  0  0
   -0.5895   -0.4131   -0.5114 C   0  0  0  0  0  0  0  0  0  0  0  0
   -4.3423   -1.7776   -3.3393 C   0  0  1  0  0  0  0  0  0  0  0  0
   -4.9190   -2.5419   -2.1510 C   0  0  0  0  0  0  0  0  0  0  0  0
   -5.4930   -3.8761   -2.6230 C   0  0  0  0  0  0  0  0  0  0  0  0
   -6.4598   -3.6813   -3.7730 C   0  0  0  0  0  0  0  0  0  0  0  0
   -5.8032   -2.8611   -4.8853 C   0  0  0  0  0  0  0  0  0  0  0  0
   -3.1286   -0.3991   -1.7592 N   0  0  0  0  0  0  0  0  0  0  0  0
    2.2690    0.5724    1.7897 N   0  0  0  0  0  0  0  0  0  0  0  0
   -2.9177   -1.2502   -1.3215 H   0  0  0  0  0  0  0  0  0  0  0  0
   -3.4472    1.4018   -0.8022 H   0  0  0  0  0  0  0  0  0  0  0  0
   -2.1214    1.3934   -1.9408 H   0  0  0  0  0  0  0  0  0  0  0  0
   -2.1753    0.1709    0.7899 H   0  0  0  0  0  0  0  0  0  0  0  0
   -0.6287    2.4394   -0.4858 H   0  0  0  0  0  0  0  0  0  0  0  0
   -1.7550    2.5528    0.8457 H   0  0  0  0  0  0  0  0  0  0  0  0
   -0.2679    1.2489    2.2584 H   0  0  0  0  0  0  0  0  0  0  0  0
    0.5885    2.6298    1.6151 H   0  0  0  0  0  0  0  0  0  0  0  0
    1.6289    1.1836   -0.0850 H   0  0  0  0  0  0  0  0  0  0  0  0
    2.1221   -0.0561    2.5271 H   0  0  0  0  0  0  0  0  0  0  0  0
    6.4424    1.2597    3.5204 H   0  0  0  0  0  0  0  0  0  0  0  0
    5.6359    3.4396    4.2921 H   0  0  0  0  0  0  0  0  0  0  0  0
    4.3063    3.4159    3.1582 H   0  0  0  0  0  0  0  0  0  0  0  0
    7.2223    4.0347    2.5491 H   0  0  0  0  0  0  0  0  0  0  0  0
    5.8325    4.4522    1.5752 H   0  0  0  0  0  0  0  0  0  0  0  0
    5.6365    2.1818    0.7295 H   0  0  0  0  0  0  0  0  0  0  0  0
    7.2607    1.9346    1.3253 H   0  0  0  0  0  0  0  0  0  0  0  0
    5.7123   -1.0635    3.0881 H   0  0  0  0  0  0  0  0  0  0  0  0
    4.2044   -1.3901    2.2673 H   0  0  0  0  0  0  0  0  0  0  0  0
    2.9402   -0.0590    4.0604 H   0  0  0  0  0  0  0  0  0  0  0  0
    4.4481    0.2676    4.8811 H   0  0  0  0  0  0  0  0  0  0  0  0
    0.1921   -1.0318    1.3813 H   0  0  0  0  0  0  0  0  0  0  0  0
    1.3016   -1.2422    0.0476 H   0  0  0  0  0  0  0  0  0  0  0  0
   -1.0609   -1.3625   -0.6575 H   0  0  0  0  0  0  0  0  0  0  0  0
   -0.1863   -0.0678   -1.4405 H   0  0  0  0  0  0  0  0  0  0  0  0
   -3.5120   -2.3220   -3.7383 H   0  0  0  0  0  0  0  0  0  0  0  0
   -5.6957   -1.9614   -1.6986 H   0  0  0  0  0  0  0  0  0  0  0  0
   -4.1445   -2.7220   -1.4350 H   0  0  0  0  0  0  0  0  0  0  0  0
   -4.6906   -4.5066   -2.9449 H   0  0  0  0  0  0  0  0  0  0  0  0
   -6.0084   -4.3415   -1.8090 H   0  0  0  0  0  0  0  0  0  0  0  0
   -7.3285   -3.1657   -3.4202 H   0  0  0  0  0  0  0  0  0  0  0  0
   -6.7445   -4.6371   -4.1604 H   0  0  0  0  0  0  0  0  0  0  0  0
   -6.5211   -2.6670   -5.6546 H   0  0  0  0  0  0  0  0  0  0  0  0
   -4.9814   -3.4110   -5.2943 H   0  0  0  0  0  0  0  0  0  0  0  0
  4 25  1  0  0  0  0
  4 20  1  0  0  0  0
  4  1  2  0  0  0  0
  5 25  1  0  0  0  0
  5  6  1  0  0  0  0
  5 28  1  0  0  0  0
  5 29  1  0  0  0  0
  6  7  1  0  0  0  0
  6 19  1  0  0  0  0
  6 30  1  1  0  0  0
  7  8  1  0  0  0  0
  7 31  1  0  0  0  0
  7 32  1  0  0  0  0
  8  9  1  0  0  0  0
  8 33  1  0  0  0  0
  8 34  1  0  0  0  0
  9 26  1  0  0  0  0
  9 18  1  0  0  0  0
  9 35  1  6  0  0  0
 10 26  1  0  0  0  0
 10 11  1  0  0  0  0
 10  2  2  0  0  0  0
 11 12  1  0  0  0  0
 11 16  1  0  0  0  0
 11 17  1  0  0  0  0
 12 13  1  0  0  0  0
 12 15  1  0  0  0  0
 12 37  1  0  0  0  0
 13 14  1  0  0  0  0
 13 38  1  0  0  0  0
 13 39  1  0  0  0  0
 14 15  1  0  0  0  0
 14 40  1  0  0  0  0
 14 41  1  0  0  0  0
 15 42  1  0  0  0  0
 15 43  1  0  0  0  0
 16 17  1  0  0  0  0
 16 44  1  0  0  0  0
 16 45  1  0  0  0  0
 17 46  1  0  0  0  0
 17 47  1  0  0  0  0
 18 19  1  0  0  0  0
 18 48  1  0  0  0  0
 18 49  1  0  0  0  0
 19 50  1  0  0  0  0
 19 51  1  0  0  0  0
 20 21  1  0  0  0  0
 20  3  1  0  0  0  0
 20 52  1  6  0  0  0
 21 22  1  0  0  0  0
 21 53  1  0  0  0  0
 21 54  1  0  0  0  0
 22 23  1  0  0  0  0
 22 55  1  0  0  0  0
 22 56  1  0  0  0  0
 23 24  1  0  0  0  0
 23 57  1  0  0  0  0
 23 58  1  0  0  0  0
 24  3  1  0  0  0  0
 24 59  1  0  0  0  0
 24 60  1  0  0  0  0
 25 27  1  0  0  0  0
 26 36  1  0  0  0  0
M  END
>  <score>
0.43557775020599365

$$$$
Z4503883969
 OpenBabel08202115463D

 48 48  0  0  0  0  0  0  0  0999 V2000
    3.8320   -0.8629    4.1662 C   0  0  0  0  0  0  0  0  0  0  0  0
    4.7225    0.3830    4.2701 C   0  0  2  0  0  0  0  0  0  0  0  0
    4.8515    1.2318    3.0175 C   0  0  2  0  0  0  0  0  0  0  0  0
    3.1972    1.3708    1.2430 C   0  0  0  0  0  0  0  0  0  0  0  0
    1.8291    1.8393    0.8298 C   0  0  0  0  0  0  0  0  0  0  0  0
    1.0516    0.8793   -0.0558 C   0  0  0  0  0  0  0  0  0  0  0  0
   -0.3588    1.3917   -0.2977 C   0  0  0  0  0  0  0  0  0  0  0  0
   -1.1590    0.5121   -1.2587 C   0  0  0  0  0  0  0  0  0  0  0  0
   -3.2625    0.1682   -2.4688 C   0  0  0  0  0  0  0  0  0  0  0  0
   -3.9838   -1.0304   -1.8964 C   0  0  0  0  0  0  0  0  0  0  0  0
   -4.7974   -1.8253   -2.8824 C   0  0  0  0  0  0  0  0  0  0  0  0
   -4.2097   -2.8619   -3.5907 C   0  0  0  0  0  0  0  0  0  0  0  0
   -4.9557   -3.5880   -4.4998 C   0  0  0  0  0  0  0  0  0  0  0  0
   -6.2931   -3.2831   -4.6993 C   0  0  0  0  0  0  0  0  0  0  0  0
   -6.8793   -2.2496   -3.9931 C   0  0  0  0  0  0  0  0  0  0  0  0
   -6.1309   -1.5214   -3.0814 C   0  0  0  0  0  0  0  0  0  0  0  0
    5.7164    2.4646    3.2433 C   0  0  0  0  0  0  0  0  0  0  0  0
    6.0622   -0.0301    4.5923 O   0  0  0  0  0  0  0  0  0  0  0  0
    3.9451    0.8015    0.4472 O   0  0  0  0  0  0  0  0  0  0  0  0
   -0.6218   -0.4407   -1.8219 O   0  0  0  0  0  0  0  0  0  0  0  0
    3.5382    1.6157    2.5252 N   0  0  0  0  0  0  0  0  0  0  0  0
   -2.4227    0.8829   -1.5191 N   0  0  0  0  0  0  0  0  0  0  0  0
    5.9576    3.1085    2.1000 F   0  0  0  0  0  0  0  0  0  0  0  0
    6.8972    2.1155    3.7569 F   0  0  0  0  0  0  0  0  0  0  0  0
    5.1576    3.3244    4.0809 F   0  0  0  0  0  0  0  0  0  0  0  0
    2.8457   -0.5733    3.8692 H   0  0  0  0  0  0  0  0  0  0  0  0
    3.7889   -1.3505    5.1177 H   0  0  0  0  0  0  0  0  0  0  0  0
    4.2406   -1.5335    3.4394 H   0  0  0  0  0  0  0  0  0  0  0  0
    4.3414    1.0015    5.0556 H   0  0  0  0  0  0  0  0  0  0  0  0
    6.6450    0.1697    3.8560 H   0  0  0  0  0  0  0  0  0  0  0  0
    5.3279    0.6348    2.2682 H   0  0  0  0  0  0  0  0  0  0  0  0
    2.8994    2.0532    3.1260 H   0  0  0  0  0  0  0  0  0  0  0  0
    1.9424    2.7608    0.2980 H   0  0  0  0  0  0  0  0  0  0  0  0
    1.2557    2.0073    1.7175 H   0  0  0  0  0  0  0  0  0  0  0  0
    1.0005   -0.0763    0.4228 H   0  0  0  0  0  0  0  0  0  0  0  0
    1.5554    0.7820   -0.9947 H   0  0  0  0  0  0  0  0  0  0  0  0
   -0.2972    2.3774   -0.7094 H   0  0  0  0  0  0  0  0  0  0  0  0
   -0.8735    1.4277    0.6397 H   0  0  0  0  0  0  0  0  0  0  0  0
   -2.7925    1.6619   -1.0535 H   0  0  0  0  0  0  0  0  0  0  0  0
   -2.6432   -0.1686   -3.2736 H   0  0  0  0  0  0  0  0  0  0  0  0
   -3.9962    0.8507   -2.8441 H   0  0  0  0  0  0  0  0  0  0  0  0
   -4.6431   -0.6832   -1.1284 H   0  0  0  0  0  0  0  0  0  0  0  0
   -3.2515   -1.6837   -1.4700 H   0  0  0  0  0  0  0  0  0  0  0  0
   -3.2073   -3.0932   -3.4380 H   0  0  0  0  0  0  0  0  0  0  0  0
   -4.5137   -4.3631   -5.0341 H   0  0  0  0  0  0  0  0  0  0  0  0
   -6.8556   -3.8321   -5.3804 H   0  0  0  0  0  0  0  0  0  0  0  0
   -7.8817   -2.0183   -4.1458 H   0  0  0  0  0  0  0  0  0  0  0  0
   -6.5729   -0.7464   -2.5470 H   0  0  0  0  0  0  0  0  0  0  0  0
  1  2  1  0  0  0  0
  1 26  1  0  0  0  0
  1 27  1  0  0  0  0
  1 28  1  0  0  0  0
  2 18  1  0  0  0  0
  2  3  1  0  0  0  0
  2 29  1  1  0  0  0
  3 21  1  0  0  0  0
  3 17  1  0  0  0  0
  3 31  1  6  0  0  0
  4 21  1  0  0  0  0
  4  5  1  0  0  0  0
  4 19  2  0  0  0  0
  5  6  1  0  0  0  0
  5 33  1  0  0  0  0
  5 34  1  0  0  0  0
  6  7  1  0  0  0  0
  6 35  1  0  0  0  0
  6 36  1  0  0  0  0
  7  8  1  0  0  0  0
  7 37  1  0  0  0  0
  7 38  1  0  0  0  0
  8 22  1  0  0  0  0
  8 20  2  0  0  0  0
  9 22  1  0  0  0  0
  9 10  1  0  0  0  0
  9 40  1  0  0  0  0
  9 41  1  0  0  0  0
 10 11  1  0  0  0  0
 10 42  1  0  0  0  0
 10 43  1  0  0  0  0
 11 16  1  0  0  0  0
 11 12  2  0  0  0  0
 12 13  1  0  0  0  0
 12 44  1  0  0  0  0
 13 45  1  0  0  0  0
 13 14  2  0  0  0  0
 14 15  1  0  0  0  0
 14 46  1  0  0  0  0
 15 47  1  0  0  0  0
 15 16  2  0  0  0  0
 16 48  1  0  0  0  0
 17 23  1  0  0  0  0
 17 24  1  0  0  0  0
 17 25  1  0  0  0  0
 18 30  1  0  0  0  0
 21 32  1  0  0  0  0
 22 39  1  0  0  0  0
M  END
>  <score>
0.43560832738876343

$$$$
PV-003673318522
 OpenBabel08202115463D

 45 45  0  0  0  0  0  0  0  0999 V2000
   -6.8251   -4.2785   -3.4401 C   0  0  0  0  0  0  0  0  0  0  0  0
   -5.4483   -3.6442   -3.5522 C   0  0  0  0  0  0  0  0  0  0  0  0
   -5.0738   -2.7141   -2.4312 C   0  0  0  0  0  0  0  0  0  0  0  0
   -3.4063   -1.2215   -1.4334 C   0  0  0  0  0  0  0  0  0  0  0  0
   -1.9578   -0.7813   -1.6330 C   0  0  0  0  0  0  0  0  0  0  0  0
   -0.0909    0.4723   -0.6596 C   0  0  1  0  0  0  0  0  0  0  0  0
    0.1508    1.8526    0.0540 C   0  0  0  0  0  0  0  0  0  0  0  0
    0.9843    1.1355    1.1465 C   0  0  1  0  0  0  0  0  0  0  0  0
    3.1922    1.2035    2.1956 C   0  0  0  0  0  0  0  0  0  0  0  0
    4.6347    1.6500    2.0573 C   0  0  1  0  0  0  0  0  0  0  0  0
    4.9754    2.8159    2.9817 C   0  0  0  0  0  0  0  0  0  0  0  0
    3.9788    3.9606    2.9003 C   0  0  0  0  0  0  0  0  0  0  0  0
    5.6544    0.5198    2.2909 C   0  0  0  0  0  0  0  0  0  0  0  0
    0.7425   -0.2447    0.4328 C   0  0  0  0  0  0  0  0  0  0  0  0
   -5.8618   -2.4797   -1.5159 O   0  0  0  0  0  0  0  0  0  0  0  0
   -1.2749   -1.2438   -2.5460 O   0  0  0  0  0  0  0  0  0  0  0  0
    2.8118    0.5691    3.1783 O   0  0  0  0  0  0  0  0  0  0  0  0
   -3.8571   -2.1494   -2.4599 N   0  0  0  0  0  0  0  0  0  0  0  0
   -1.4871    0.0640   -0.7035 N   0  0  0  0  0  0  0  0  0  0  0  0
    2.3805    1.5437    1.1904 N   0  0  0  0  0  0  0  0  0  0  0  0
    6.8717    0.9204    1.9667 F   0  0  0  0  0  0  0  0  0  0  0  0
    5.3512   -0.5356    1.5553 F   0  0  0  0  0  0  0  0  0  0  0  0
    5.6588    0.1565    3.5617 F   0  0  0  0  0  0  0  0  0  0  0  0
   -6.9869   -4.9304   -4.2730 H   0  0  0  0  0  0  0  0  0  0  0  0
   -7.5716   -3.5119   -3.4373 H   0  0  0  0  0  0  0  0  0  0  0  0
   -6.8860   -4.8397   -2.5311 H   0  0  0  0  0  0  0  0  0  0  0  0
   -5.4139   -3.0896   -4.4666 H   0  0  0  0  0  0  0  0  0  0  0  0
   -4.7240   -4.4310   -3.5842 H   0  0  0  0  0  0  0  0  0  0  0  0
   -3.2509   -2.3694   -3.1978 H   0  0  0  0  0  0  0  0  0  0  0  0
   -3.4906   -1.6989   -0.4795 H   0  0  0  0  0  0  0  0  0  0  0  0
   -4.0335   -0.3549   -1.4559 H   0  0  0  0  0  0  0  0  0  0  0  0
   -2.1050    0.4189   -0.0307 H   0  0  0  0  0  0  0  0  0  0  0  0
    0.3307    0.4092   -1.6410 H   0  0  0  0  0  0  0  0  0  0  0  0
   -0.7407    2.3183    0.4191 H   0  0  0  0  0  0  0  0  0  0  0  0
    0.7074    2.5554   -0.5300 H   0  0  0  0  0  0  0  0  0  0  0  0
    0.5627    1.1985    2.1279 H   0  0  0  0  0  0  0  0  0  0  0  0
    2.7377    2.0870    0.4571 H   0  0  0  0  0  0  0  0  0  0  0  0
    4.7669    1.9936    1.0526 H   0  0  0  0  0  0  0  0  0  0  0  0
    5.9425    3.1884    2.7155 H   0  0  0  0  0  0  0  0  0  0  0  0
    4.9964    2.4553    3.9889 H   0  0  0  0  0  0  0  0  0  0  0  0
    3.9483    4.3371    1.8991 H   0  0  0  0  0  0  0  0  0  0  0  0
    4.2790    4.7426    3.5661 H   0  0  0  0  0  0  0  0  0  0  0  0
    3.0076    3.6081    3.1782 H   0  0  0  0  0  0  0  0  0  0  0  0
    1.6340   -0.7104    0.0677 H   0  0  0  0  0  0  0  0  0  0  0  0
    0.1859   -0.9476    1.0169 H   0  0  0  0  0  0  0  0  0  0  0  0
  1  2  1  0  0  0  0
  1 24  1  0  0  0  0
  1 25  1  0  0  0  0
  1 26  1  0  0  0  0
  2  3  1  0  0  0  0
  2 27  1  0  0  0  0
  2 28  1  0  0  0  0
  3 18  1  0  0  0  0
  3 15  2  0  0  0  0
  4 18  1  0  0  0  0
  4  5  1  0  0  0  0
  4 30  1  0  0  0  0
  4 31  1  0  0  0  0
  5 19  1  0  0  0  0
  5 16  2  0  0  0  0
  6 19  1  0  0  0  0
  6  7  1  0  0  0  0
  6 14  1  0  0  0  0
  6 33  1  6  0  0  0
  7  8  1  0  0  0  0
  7 34  1  0  0  0  0
  7 35  1  0  0  0  0
  8 20  1  0  0  0  0
  8 14  1  0  0  0  0
  8 36  1  1  0  0  0
  9 20  1  0  0  0  0
  9 10  1  0  0  0  0
  9 17  2  0  0  0  0
 10 11  1  0  0  0  0
 10 13  1  0  0  0  0
 10 38  1  6  0  0  0
 11 12  1  0  0  0  0
 11 39  1  0  0  0  0
 11 40  1  0  0  0  0
 12 41  1  0  0  0  0
 12 42  1  0  0  0  0
 12 43  1  0  0  0  0
 13 21  1  0  0  0  0
 13 22  1  0  0  0  0
 13 23  1  0  0  0  0
 14 44  1  0  0  0  0
 14 45  1  0  0  0  0
 18 29  1  0  0  0  0
 19 32  1  0  0  0  0
 20 37  1  0  0  0  0
M  END
>  <score>
0.43565273284912109

$$$$
PV-003841283010
 OpenBabel08202115463D

 52 53  0  0  0  0  0  0  0  0999 V2000
    5.4993   -0.3292    4.2124 C   0  0  0  0  0  0  0  0  0  0  0  0
    5.9682    0.2767    2.8996 C   0  0  0  0  0  0  0  0  0  0  0  0
    5.5990    1.7288    2.7552 C   0  0  0  0  0  0  0  0  0  0  0  0
    6.2966    2.8181    3.2203 C   0  0  0  0  0  0  0  0  0  0  0  0
    4.4695    2.2595    2.1172 C   0  0  0  0  0  0  0  0  0  0  0  0
    3.3615    1.5017    1.4342 C   0  0  0  0  0  0  0  0  0  0  0  0
    1.4295    1.5301   -0.1275 C   0  0  0  0  0  0  0  0  0  0  0  0
    0.1289    1.4969    0.6418 C   0  0  0  0  0  0  0  0  0  0  0  0
   -1.8047    2.2163   -0.7600 C   0  0  0  0  0  0  0  0  0  0  0  0
   -2.9476    2.6218    0.1373 C   0  0  0  0  0  0  0  0  0  0  0  0
   -1.3361   -0.1556   -0.4587 C   0  0  0  0  0  0  0  0  0  0  0  0
   -2.4237   -0.4220   -1.4747 C   0  0  0  0  0  0  0  0  0  0  0  0
   -3.8278   -2.2617   -2.2849 C   0  0  0  0  0  0  0  0  0  0  0  0
   -4.1820   -3.7247   -2.1399 C   0  0  1  0  0  0  0  0  0  0  0  0
   -5.6121   -4.1636   -2.1783 C   0  0  0  0  0  0  0  0  0  0  0  0
   -4.6822   -4.5556   -3.2836 C   0  0  1  0  0  0  0  0  0  0  0  0
   -4.8105   -3.8884   -4.6510 C   0  0  0  0  0  0  0  0  0  0  0  0
    5.5920    3.9174    2.8612 N   0  0  0  0  0  0  0  0  0  0  0  0
    4.4660    3.5946    2.1748 N   0  0  0  0  0  0  0  0  0  0  0  0
    2.5181    2.1542    0.6338 N   0  0  0  0  0  0  0  0  0  0  0  0
   -1.0115    1.1279   -0.1988 N   0  0  0  0  0  0  0  0  0  0  0  0
   -2.8279   -1.8272   -1.5126 N   0  0  0  0  0  0  0  0  0  0  0  0
    3.2837    0.2890    1.6508 O   0  0  0  0  0  0  0  0  0  0  0  0
   -0.7659   -1.0831    0.1124 O   0  0  0  0  0  0  0  0  0  0  0  0
   -4.4282   -1.5390   -3.0633 O   0  0  0  0  0  0  0  0  0  0  0  0
    5.9448    0.1995    5.0291 H   0  0  0  0  0  0  0  0  0  0  0  0
    5.7891   -1.3584    4.2537 H   0  0  0  0  0  0  0  0  0  0  0  0
    4.4339   -0.2552    4.2787 H   0  0  0  0  0  0  0  0  0  0  0  0
    5.5234   -0.2696    2.0943 H   0  0  0  0  0  0  0  0  0  0  0  0
    7.0333    0.1891    2.8453 H   0  0  0  0  0  0  0  0  0  0  0  0
    7.1933    2.8012    3.7468 H   0  0  0  0  0  0  0  0  0  0  0  0
    5.8623    4.8356    3.0715 H   0  0  0  0  0  0  0  0  0  0  0  0
    2.6338    3.1235    0.5473 H   0  0  0  0  0  0  0  0  0  0  0  0
    1.7111    0.5263   -0.3683 H   0  0  0  0  0  0  0  0  0  0  0  0
    1.2800    2.0854   -1.0299 H   0  0  0  0  0  0  0  0  0  0  0  0
   -0.0498    2.4675    1.0552 H   0  0  0  0  0  0  0  0  0  0  0  0
    0.2169    0.7823    1.4333 H   0  0  0  0  0  0  0  0  0  0  0  0
   -2.2034    1.9001   -1.7013 H   0  0  0  0  0  0  0  0  0  0  0  0
   -1.1680    3.0634   -0.9083 H   0  0  0  0  0  0  0  0  0  0  0  0
   -3.4871    3.4283   -0.3136 H   0  0  0  0  0  0  0  0  0  0  0  0
   -2.5626    2.9362    1.0848 H   0  0  0  0  0  0  0  0  0  0  0  0
   -3.6039    1.7883    0.2773 H   0  0  0  0  0  0  0  0  0  0  0  0
   -2.0634   -0.1433   -2.4429 H   0  0  0  0  0  0  0  0  0  0  0  0
   -3.2774    0.1733   -1.2263 H   0  0  0  0  0  0  0  0  0  0  0  0
   -2.3487   -2.4725   -0.9519 H   0  0  0  0  0  0  0  0  0  0  0  0
   -3.5731   -4.2566   -1.4390 H   0  0  0  0  0  0  0  0  0  0  0  0
   -6.3862   -3.4476   -2.3598 H   0  0  0  0  0  0  0  0  0  0  0  0
   -5.9632   -4.9020   -1.4881 H   0  0  0  0  0  0  0  0  0  0  0  0
   -4.3680   -5.5784   -3.2956 H   0  0  0  0  0  0  0  0  0  0  0  0
   -4.1441   -3.0530   -4.7046 H   0  0  0  0  0  0  0  0  0  0  0  0
   -5.8164   -3.5515   -4.7902 H   0  0  0  0  0  0  0  0  0  0  0  0
   -4.5607   -4.5933   -5.4163 H   0  0  0  0  0  0  0  0  0  0  0  0
  1  2  1  0  0  0  0
  1 26  1  0  0  0  0
  1 27  1  0  0  0  0
  1 28  1  0  0  0  0
  2  3  1  0  0  0  0
  2 29  1  0  0  0  0
  2 30  1  0  0  0  0
  3  5  1  0  0  0  0
  3  4  2  0  0  0  0
  4 18  1  0  0  0  0
  4 31  1  0  0  0  0
  5  6  1  0  0  0  0
  5 19  2  0  0  0  0
  6 20  1  0  0  0  0
  6 23  2  0  0  0  0
  7 20  1  0  0  0  0
  7  8  1  0  0  0  0
  7 34  1  0  0  0  0
  7 35  1  0  0  0  0
  8 21  1  0  0  0  0
  8 36  1  0  0  0  0
  8 37  1  0  0  0  0
  9 21  1  0  0  0  0
  9 10  1  0  0  0  0
  9 38  1  0  0  0  0
  9 39  1  0  0  0  0
 10 40  1  0  0  0  0
 10 41  1  0  0  0  0
 10 42  1  0  0  0  0
 11 21  1  0  0  0  0
 11 12  1  0  0  0  0
 11 24  2  0  0  0  0
 12 22  1  0  0  0  0
 12 43  1  0  0  0  0
 12 44  1  0  0  0  0
 13 22  1  0  0  0  0
 13 14  1  0  0  0  0
 13 25  2  0  0  0  0
 14 15  1  0  0  0  0
 14 16  1  0  0  0  0
 14 46  1  1  0  0  0
 15 16  1  0  0  0  0
 15 47  1  0  0  0  0
 15 48  1  0  0  0  0
 16 17  1  0  0  0  0
 16 49  1  6  0  0  0
 17 50  1  0  0  0  0
 17 51  1  0  0  0  0
 17 52  1  0  0  0  0
 18 19  1  0  0  0  0
 18 32  1  0  0  0  0
 20 33  1  0  0  0  0
 22 45  1  0  0  0  0
M  END
>  <score>
0.43571013212203979

$$$$
PV-004062111719
 OpenBabel08202115463D

 51 53  0  0  0  0  0  0  0  0999 V2000
   -0.3142    0.0605    1.2921 C   0  0  0  0  0  0  0  0  0  0  0  0
    0.6098    0.7350    0.2914 C   0  0  1  0  0  0  0  0  0  0  0  0
   -0.1322    1.4382   -0.8317 C   0  0  0  0  0  0  0  0  0  0  0  0
   -2.1570    0.1507   -1.3913 C   0  0  0  0  0  0  0  0  0  0  0  0
   -2.8611   -0.7772   -2.3194 C   0  0  0  0  0  0  0  0  0  0  0  0
   -4.0720   -1.3532   -1.9925 C   0  0  0  0  0  0  0  0  0  0  0  0
   -4.6333   -2.1940   -2.9350 C   0  0  0  0  0  0  0  0  0  0  0  0
   -5.9525   -2.8528   -2.6545 C   0  0  0  0  0  0  0  0  0  0  0  0
   -6.3695   -4.1426   -3.2959 C   0  0  0  0  0  0  0  0  0  0  0  0
   -7.0888   -2.8732   -3.6283 C   0  0  0  0  0  0  0  0  0  0  0  0
   -2.8760   -1.8427   -4.3175 C   0  0  0  0  0  0  0  0  0  0  0  0
    1.0874    2.8633    1.4881 C   0  0  0  0  0  0  0  0  0  0  0  0
    2.9088    1.2480    1.0161 C   0  0  0  0  0  0  0  0  0  0  0  0
    3.7760    2.1217    1.8748 C   0  0  2  0  0  0  0  0  0  0  0  0
    5.3042    1.7542    1.8291 C   0  0  0  0  0  0  0  0  0  0  0  0
    5.2689    1.3961    3.3368 C   0  0  2  0  0  0  0  0  0  0  0  0
    5.5625   -0.0467    3.6321 C   0  0  0  0  0  0  0  0  0  0  0  0
    3.7406    1.7636    3.3824 C   0  0  0  0  0  0  0  0  0  0  0  0
   -0.8881    0.5090   -1.6735 N   0  0  0  0  0  0  0  0  0  0  0  0
   -4.0424   -2.4544   -4.1132 N   0  0  0  0  0  0  0  0  0  0  0  0
   -2.2422   -1.0128   -3.4856 N   0  0  0  0  0  0  0  0  0  0  0  0
    1.5807    1.6085    0.9373 N   0  0  0  0  0  0  0  0  0  0  0  0
   -2.7269    0.5820   -0.3837 O   0  0  0  0  0  0  0  0  0  0  0  0
    3.3145    0.2707    0.4090 O   0  0  0  0  0  0  0  0  0  0  0  0
    6.9215   -0.2845    3.2900 O   0  0  0  0  0  0  0  0  0  0  0  0
    6.0829    2.2163    4.1429 F   0  0  0  0  0  0  0  0  0  0  0  0
   -0.8495    0.8057    1.8426 H   0  0  0  0  0  0  0  0  0  0  0  0
    0.2648   -0.5342    1.9674 H   0  0  0  0  0  0  0  0  0  0  0  0
   -1.0085   -0.5649    0.7708 H   0  0  0  0  0  0  0  0  0  0  0  0
    1.1701   -0.0509   -0.1705 H   0  0  0  0  0  0  0  0  0  0  0  0
    0.5792    1.9533   -1.4429 H   0  0  0  0  0  0  0  0  0  0  0  0
   -0.8128    2.1442   -0.4036 H   0  0  0  0  0  0  0  0  0  0  0  0
   -0.4568    0.1342   -2.4697 H   0  0  0  0  0  0  0  0  0  0  0  0
   -4.5387   -1.1640   -1.0825 H   0  0  0  0  0  0  0  0  0  0  0  0
   -6.2651   -2.7631   -1.6351 H   0  0  0  0  0  0  0  0  0  0  0  0
   -6.8565   -4.8967   -2.7136 H   0  0  0  0  0  0  0  0  0  0  0  0
   -5.7381   -4.6062   -4.0248 H   0  0  0  0  0  0  0  0  0  0  0  0
   -6.9721   -2.4302   -4.5952 H   0  0  0  0  0  0  0  0  0  0  0  0
   -8.0904   -2.7206   -3.2841 H   0  0  0  0  0  0  0  0  0  0  0  0
   -2.4073   -2.0331   -5.2261 H   0  0  0  0  0  0  0  0  0  0  0  0
    1.7540    3.2045    2.2523 H   0  0  0  0  0  0  0  0  0  0  0  0
    0.1142    2.7109    1.9060 H   0  0  0  0  0  0  0  0  0  0  0  0
    1.0315    3.5963    0.7106 H   0  0  0  0  0  0  0  0  0  0  0  0
    3.5668    3.1497    1.6644 H   0  0  0  0  0  0  0  0  0  0  0  0
    5.9438    2.5785    1.5917 H   0  0  0  0  0  0  0  0  0  0  0  0
    5.5348    0.9276    1.1900 H   0  0  0  0  0  0  0  0  0  0  0  0
    4.9234   -0.6763    3.0489 H   0  0  0  0  0  0  0  0  0  0  0  0
    5.4074   -0.2455    4.6720 H   0  0  0  0  0  0  0  0  0  0  0  0
    7.2948   -0.9325    3.8919 H   0  0  0  0  0  0  0  0  0  0  0  0
    3.1009    0.9393    3.6197 H   0  0  0  0  0  0  0  0  0  0  0  0
    3.5099    2.5902    4.0215 H   0  0  0  0  0  0  0  0  0  0  0  0
  1  2  1  0  0  0  0
  1 27  1  0  0  0  0
  1 28  1  0  0  0  0
  1 29  1  0  0  0  0
  2  3  1  0  0  0  0
  2 22  1  0  0  0  0
  2 30  1  6  0  0  0
  3 19  1  0  0  0  0
  3 31  1  0  0  0  0
  3 32  1  0  0  0  0
  4 19  1  0  0  0  0
  4  5  1  0  0  0  0
  4 23  2  0  0  0  0
  5 21  1  0  0  0  0
  5  6  2  0  0  0  0
  6  7  1  0  0  0  0
  6 34  1  0  0  0  0
  7  8  1  0  0  0  0
  7 20  2  0  0  0  0
  8  9  1  0  0  0  0
  8 10  1  0  0  0  0
  8 35  1  0  0  0  0
  9 10  1  0  0  0  0
  9 36  1  0  0  0  0
  9 37  1  0  0  0  0
 10 38  1  0  0  0  0
 10 39  1  0  0  0  0
 11 20  1  0  0  0  0
 11 40  1  0  0  0  0
 11 21  2  0  0  0  0
 12 22  1  0  0  0  0
 12 41  1  0  0  0  0
 12 42  1  0  0  0  0
 12 43  1  0  0  0  0
 13 22  1  0  0  0  0
 13 14  1  0  0  0  0
 13 24  2  0  0  0  0
 14 15  1  0  0  0  0
 14 18  1  0  0  0  0
 14 44  1  6  0  0  0
 15 16  1  0  0  0  0
 15 45  1  0  0  0  0
 15 46  1  0  0  0  0
 16 26  1  1  0  0  0
 16 17  1  0  0  0  0
 16 18  1  0  0  0  0
 17 25  1  0  0  0  0
 17 47  1  0  0  0  0
 17 48  1  0  0  0  0
 18 50  1  0  0  0  0
 18 51  1  0  0  0  0
 19 33  1  0  0  0  0
 25 49  1  0  0  0  0
M  END
>  <score>
0.43597203493118286

$$$$
PV-003341992366
 OpenBabel08202115463D

 54 55  0  0  0  0  0  0  0  0999 V2000
   -4.9949   -3.8954   -0.3521 C   0  0  0  0  0  0  0  0  0  0  0  0
   -3.2056   -2.7005   -1.6465 C   0  0  0  0  0  0  0  0  0  0  0  0
   -3.4100   -1.2105   -1.5307 C   0  0  0  0  0  0  0  0  0  0  0  0
   -2.3522    0.9533   -1.0801 C   0  0  0  0  0  0  0  0  0  0  0  0
   -1.0206    1.5246   -0.5926 C   0  0  1  0  0  0  0  0  0  0  0  0
   -1.1493    3.0392   -0.4140 C   0  0  0  0  0  0  0  0  0  0  0  0
   -0.6503    0.8801    0.7557 C   0  0  0  0  0  0  0  0  0  0  0  0
    0.7214    1.3595    1.2512 C   0  0  0  0  0  0  0  0  0  0  0  0
    1.8385    1.1012    0.2369 C   0  0  1  0  0  0  0  0  0  0  0  0
    3.8858    1.1352    1.5829 C   0  0  0  0  0  0  0  0  0  0  0  0
    5.1604    1.8819    1.9247 C   0  0  1  0  0  0  0  0  0  0  0  0
    5.5682    2.1322    3.3428 C   0  0  0  0  0  0  0  0  0  0  0  0
    6.3103    1.1270    2.5137 C   0  0  1  0  0  0  0  0  0  0  0  0
    6.2602   -0.3010    2.7783 C   0  0  0  0  0  0  0  0  0  0  0  0
    1.4605    1.6913   -1.1661 C   0  0  0  0  0  0  0  0  0  0  0  0
    0.0930    1.2186   -1.6469 C   0  0  0  0  0  0  0  0  0  0  0  0
   -5.1151   -3.7060   -2.7810 C   0  0  0  0  0  0  0  0  0  0  0  0
   -4.4848   -3.4558   -1.6441 N   0  0  0  0  0  0  0  0  0  0  0  0
   -2.3149   -0.4930   -1.2374 N   0  0  0  0  0  0  0  0  0  0  0  0
    3.0640    1.7309    0.7055 N   0  0  0  0  0  0  0  0  0  0  0  0
   -6.2640   -4.3903   -2.7180 N   0  0  0  0  0  0  0  0  0  0  0  0
   -4.5183   -0.7032   -1.6979 O   0  0  0  0  0  0  0  0  0  0  0  0
    3.5958    0.0817    2.1485 O   0  0  0  0  0  0  0  0  0  0  0  0
   -4.6344   -3.3075   -3.8579 O   0  0  0  0  0  0  0  0  0  0  0  0
    5.2269   -0.8458    3.4137 F   0  0  0  0  0  0  0  0  0  0  0  0
   -4.1797   -4.2100    0.2655 H   0  0  0  0  0  0  0  0  0  0  0  0
   -5.6700   -4.7131   -0.4950 H   0  0  0  0  0  0  0  0  0  0  0  0
   -5.5095   -3.0860    0.1220 H   0  0  0  0  0  0  0  0  0  0  0  0
   -2.6889   -2.9050   -2.5608 H   0  0  0  0  0  0  0  0  0  0  0  0
   -2.6120   -3.0299   -0.8194 H   0  0  0  0  0  0  0  0  0  0  0  0
   -1.4601   -0.9591   -1.1252 H   0  0  0  0  0  0  0  0  0  0  0  0
   -3.1124    1.2013   -0.3692 H   0  0  0  0  0  0  0  0  0  0  0  0
   -2.5893    1.3950   -2.0254 H   0  0  0  0  0  0  0  0  0  0  0  0
   -1.9857    3.2546    0.2177 H   0  0  0  0  0  0  0  0  0  0  0  0
   -1.2958    3.4996   -1.3687 H   0  0  0  0  0  0  0  0  0  0  0  0
   -0.2563    3.4224    0.0341 H   0  0  0  0  0  0  0  0  0  0  0  0
   -0.6249   -0.1830    0.6373 H   0  0  0  0  0  0  0  0  0  0  0  0
   -1.3924    1.1411    1.4810 H   0  0  0  0  0  0  0  0  0  0  0  0
    0.9569    0.8437    2.1586 H   0  0  0  0  0  0  0  0  0  0  0  0
    0.6682    2.4111    1.4415 H   0  0  0  0  0  0  0  0  0  0  0  0
    1.9918    0.0463    0.1444 H   0  0  0  0  0  0  0  0  0  0  0  0
    3.2971    2.6211    0.3684 H   0  0  0  0  0  0  0  0  0  0  0  0
    5.4290    2.6518    1.2318 H   0  0  0  0  0  0  0  0  0  0  0  0
    4.9409    1.8051    4.1456 H   0  0  0  0  0  0  0  0  0  0  0  0
    6.0369    3.0564    3.6096 H   0  0  0  0  0  0  0  0  0  0  0  0
    7.2690    1.4641    2.1785 H   0  0  0  0  0  0  0  0  0  0  0  0
    7.1295   -0.5333    3.3574 H   0  0  0  0  0  0  0  0  0  0  0  0
    6.3235   -0.7884    1.8278 H   0  0  0  0  0  0  0  0  0  0  0  0
    1.4504    2.7591   -1.0981 H   0  0  0  0  0  0  0  0  0  0  0  0
    2.1991    1.3857   -1.8775 H   0  0  0  0  0  0  0  0  0  0  0  0
   -0.1465    1.7199   -2.5613 H   0  0  0  0  0  0  0  0  0  0  0  0
    0.1301    0.1629   -1.8173 H   0  0  0  0  0  0  0  0  0  0  0  0
   -6.6933   -4.5483   -1.8513 H   0  0  0  0  0  0  0  0  0  0  0  0
   -6.6758   -4.7331   -3.5385 H   0  0  0  0  0  0  0  0  0  0  0  0
  1 18  1  0  0  0  0
  1 26  1  0  0  0  0
  1 27  1  0  0  0  0
  1 28  1  0  0  0  0
  2 18  1  0  0  0  0
  2  3  1  0  0  0  0
  2 29  1  0  0  0  0
  2 30  1  0  0  0  0
  3 19  1  0  0  0  0
  3 22  2  0  0  0  0
  4 19  1  0  0  0  0
  4 32  1  0  0  0  0
  4 33  1  0  0  0  0
  5  4  1  6  0  0  0
  5  6  1  0  0  0  0
  5  7  1  0  0  0  0
  5 16  1  0  0  0  0
  6 34  1  0  0  0  0
  6 35  1  0  0  0  0
  6 36  1  0  0  0  0
  7  8  1  0  0  0  0
  7 37  1  0  0  0  0
  7 38  1  0  0  0  0
  8  9  1  0  0  0  0
  8 39  1  0  0  0  0
  8 40  1  0  0  0  0
  9 20  1  0  0  0  0
  9 15  1  0  0  0  0
  9 41  1  6  0  0  0
 10 20  1  0  0  0  0
 10 11  1  0  0  0  0
 10 23  2  0  0  0  0
 11 12  1  0  0  0  0
 11 13  1  0  0  0  0
 11 43  1  6  0  0  0
 12 13  1  0  0  0  0
 12 44  1  0  0  0  0
 12 45  1  0  0  0  0
 13 14  1  0  0  0  0
 13 46  1  6  0  0  0
 14 25  1  0  0  0  0
 14 47  1  0  0  0  0
 14 48  1  0  0  0  0
 15 16  1  0  0  0  0
 15 49  1  0  0  0  0
 15 50  1  0  0  0  0
 16 51  1  0  0  0  0
 16 52  1  0  0  0  0
 17 18  1  0  0  0  0
 17 21  1  0  0  0  0
 17 24  2  0  0  0  0
 19 31  1  0  0  0  0
 20 42  1  0  0  0  0
 21 53  1  0  0  0  0
 21 54  1  0  0  0  0
M  END
>  <score>
0.43598717451095581

$$$$
PV-003836292880
 OpenBabel08202115463D

 57 60  0  0  0  0  0  0  0  0999 V2000
   -2.5357    0.4493   -1.2353 O   0  0  0  0  0  0  0  0  0  0  0  0
    4.6556    2.0966    1.3301 O   0  0  0  0  0  0  0  0  0  0  0  0
    5.2384    2.7980    4.1298 O   0  0  0  0  0  0  0  0  0  0  0  0
   -2.2987   -0.5727   -0.5966 C   0  0  0  0  0  0  0  0  0  0  0  0
   -3.2236   -1.7592   -0.6498 C   0  0  0  0  0  0  0  0  0  0  0  0
   -4.4658   -1.5087   -1.4892 C   0  0  0  0  0  0  0  0  0  0  0  0
   -4.2118   -1.4327   -3.0058 C   0  0  0  0  0  0  0  0  0  0  0  0
   -5.5248   -2.2030   -3.1747 C   0  0  0  0  0  0  0  0  0  0  0  0
   -6.8192   -1.4849   -3.5581 C   0  0  0  0  0  0  0  0  0  0  0  0
   -7.2459   -2.7997   -4.2357 C   0  0  0  0  0  0  0  0  0  0  0  0
   -5.7486   -3.1323   -4.3681 C   0  0  0  0  0  0  0  0  0  0  0  0
   -5.3174   -2.7609   -1.7661 C   0  0  0  0  0  0  0  0  0  0  0  0
   -0.1152    0.2694    0.1799 C   0  0  0  0  0  0  0  0  0  0  0  0
    0.8309    0.1792    1.3617 C   0  0  0  0  0  0  0  0  0  0  0  0
    2.0704    1.0243    1.2014 C   0  0  0  0  0  0  0  0  0  0  0  0
    4.1993    1.5920    2.3386 C   0  0  0  0  0  0  0  0  0  0  0  0
    4.9368    1.4820    3.6401 C   0  0  1  0  0  0  0  0  0  0  0  0
    6.2342    0.7000    3.4242 C   0  0  0  0  0  0  0  0  0  0  0  0
    7.1601    1.4632    2.4993 C   0  0  0  0  0  0  0  0  0  0  0  0
    7.3746    2.8938    2.9887 C   0  0  0  0  0  0  0  0  0  0  0  0
    6.0257    3.5661    3.2287 C   0  0  0  0  0  0  0  0  0  0  0  0
   -0.3653    1.6663   -0.2946 C   0  0  0  0  0  0  0  0  0  0  0  0
    0.5073    0.7520   -1.0962 C   0  0  0  0  0  0  0  0  0  0  0  0
   -1.2216   -0.7108    0.1817 N   0  0  0  0  0  0  0  0  0  0  0  0
    2.9392    1.0651    2.3791 N   0  0  0  0  0  0  0  0  0  0  0  0
   -3.5290   -1.9979    0.3475 H   0  0  0  0  0  0  0  0  0  0  0  0
   -2.6912   -2.5876   -1.0683 H   0  0  0  0  0  0  0  0  0  0  0  0
   -5.0087   -0.6798   -1.0853 H   0  0  0  0  0  0  0  0  0  0  0  0
   -3.3394   -1.9532   -3.3416 H   0  0  0  0  0  0  0  0  0  0  0  0
   -4.2162   -0.4431   -3.4128 H   0  0  0  0  0  0  0  0  0  0  0  0
   -6.6928   -0.6572   -4.2242 H   0  0  0  0  0  0  0  0  0  0  0  0
   -7.4294   -1.1877   -2.7309 H   0  0  0  0  0  0  0  0  0  0  0  0
   -7.7603   -2.6766   -5.1658 H   0  0  0  0  0  0  0  0  0  0  0  0
   -7.7980   -3.4673   -3.6077 H   0  0  0  0  0  0  0  0  0  0  0  0
   -5.2957   -2.8069   -5.2813 H   0  0  0  0  0  0  0  0  0  0  0  0
   -5.4993   -4.1577   -4.1914 H   0  0  0  0  0  0  0  0  0  0  0  0
   -4.7817   -3.6862   -1.7243 H   0  0  0  0  0  0  0  0  0  0  0  0
   -6.2080   -2.8370   -1.1780 H   0  0  0  0  0  0  0  0  0  0  0  0
   -1.1631   -1.4891    0.7744 H   0  0  0  0  0  0  0  0  0  0  0  0
    1.1293   -0.8415    1.4804 H   0  0  0  0  0  0  0  0  0  0  0  0
    0.3104    0.5034    2.2385 H   0  0  0  0  0  0  0  0  0  0  0  0
    1.7647    2.0250    0.9780 H   0  0  0  0  0  0  0  0  0  0  0  0
    2.6371    0.6326    0.3827 H   0  0  0  0  0  0  0  0  0  0  0  0
    2.6054    0.7018    3.2259 H   0  0  0  0  0  0  0  0  0  0  0  0
    4.3271    0.9685    4.3538 H   0  0  0  0  0  0  0  0  0  0  0  0
    6.0052   -0.2502    2.9889 H   0  0  0  0  0  0  0  0  0  0  0  0
    6.7189    0.5536    4.3668 H   0  0  0  0  0  0  0  0  0  0  0  0
    6.7300    1.4904    1.5199 H   0  0  0  0  0  0  0  0  0  0  0  0
    8.1049    0.9625    2.4608 H   0  0  0  0  0  0  0  0  0  0  0  0
    7.9304    2.8768    3.9028 H   0  0  0  0  0  0  0  0  0  0  0  0
    7.9190    3.4440    2.2498 H   0  0  0  0  0  0  0  0  0  0  0  0
    6.1866    4.5392    3.6436 H   0  0  0  0  0  0  0  0  0  0  0  0
    5.5070    3.6563    2.2972 H   0  0  0  0  0  0  0  0  0  0  0  0
    0.0660    2.4938    0.2290 H   0  0  0  0  0  0  0  0  0  0  0  0
   -1.3319    1.9409   -0.6622 H   0  0  0  0  0  0  0  0  0  0  0  0
    0.1641    0.3726   -2.0359 H   0  0  0  0  0  0  0  0  0  0  0  0
    1.5621    0.9255   -1.1448 H   0  0  0  0  0  0  0  0  0  0  0  0
  4  5  1  0  0  0  0
  4 24  1  0  0  0  0
  4  1  2  0  0  0  0
  5  6  1  0  0  0  0
  5 26  1  0  0  0  0
  5 27  1  0  0  0  0
  6  7  1  0  0  0  0
  6 12  1  0  0  0  0
  6 28  1  0  0  0  0
  7  8  1  0  0  0  0
  7 29  1  0  0  0  0
  7 30  1  0  0  0  0
  8  9  1  0  0  0  0
  8 11  1  0  0  0  0
  8 12  1  0  0  0  0
  9 10  1  0  0  0  0
  9 31  1  0  0  0  0
  9 32  1  0  0  0  0
 10 11  1  0  0  0  0
 10 33  1  0  0  0  0
 10 34  1  0  0  0  0
 11 35  1  0  0  0  0
 11 36  1  0  0  0  0
 12 37  1  0  0  0  0
 12 38  1  0  0  0  0
 13 24  1  0  0  0  0
 13 14  1  0  0  0  0
 13 22  1  0  0  0  0
 13 23  1  0  0  0  0
 14 15  1  0  0  0  0
 14 40  1  0  0  0  0
 14 41  1  0  0  0  0
 15 25  1  0  0  0  0
 15 42  1  0  0  0  0
 15 43  1  0  0  0  0
 16 25  1  0  0  0  0
 16 17  1  0  0  0  0
 16  2  2  0  0  0  0
 17 18  1  0  0  0  0
 17  3  1  0  0  0  0
 17 45  1  1  0  0  0
 18 19  1  0  0  0  0
 18 46  1  0  0  0  0
 18 47  1  0  0  0  0
 19 20  1  0  0  0  0
 19 48  1  0  0  0  0
 19 49  1  0  0  0  0
 20 21  1  0  0  0  0
 20 50  1  0  0  0  0
 20 51  1  0  0  0  0
 21  3  1  0  0  0  0
 21 52  1  0  0  0  0
 21 53  1  0  0  0  0
 22 23  1  0  0  0  0
 22 54  1  0  0  0  0
 22 55  1  0  0  0  0
 23 56  1  0  0  0  0
 23 57  1  0  0  0  0
 24 39  1  0  0  0  0
 25 44  1  0  0  0  0
M  END
>  <score>
0.43606650829315186

$$$$
PV-003200175150
 OpenBabel08202115463D

 56 57  0  0  0  0  0  0  0  0999 V2000
   -5.8024   -5.0175   -4.5205 C   0  0  0  0  0  0  0  0  0  0  0  0
   -6.3910   -4.3553   -3.3081 C   0  0  0  0  0  0  0  0  0  0  0  0
   -5.8092   -3.0782   -1.3847 C   0  0  0  0  0  0  0  0  0  0  0  0
   -4.7710   -2.1781   -0.7433 C   0  0  0  0  0  0  0  0  0  0  0  0
   -2.5121   -1.2604   -0.9044 C   0  0  0  0  0  0  0  0  0  0  0  0
   -2.6249    0.1516   -1.4789 C   0  0  1  0  0  0  0  0  0  0  0  0
   -3.3054    1.2546   -0.7244 C   0  0  0  0  0  0  0  0  0  0  0  0
   -1.8186    1.2680   -0.8930 C   0  0  1  0  0  0  0  0  0  0  0  0
   -0.9082    1.0063    0.2850 C   0  0  0  0  0  0  0  0  0  0  0  0
    1.1547    2.3036    0.0811 C   0  0  0  0  0  0  0  0  0  0  0  0
    2.6302    2.2581   -0.2137 C   0  0  0  0  0  0  0  0  0  0  0  0
    3.4908    2.4892    1.0176 C   0  0  2  0  0  0  0  0  0  0  0  0
    4.9674    2.2587    0.6678 C   0  0  0  0  0  0  0  0  0  0  0  0
    5.9019    2.4824    1.8670 C   0  0  0  0  0  0  0  0  0  0  0  0
    5.4846    1.5553    3.0473 C   0  0  2  0  0  0  0  0  0  0  0  0
    5.8023    0.1043    2.6764 C   0  0  0  0  0  0  0  0  0  0  0  0
    3.9901    1.6746    3.3519 C   0  0  0  0  0  0  0  0  0  0  0  0
    3.0914    1.4997    2.1215 C   0  0  0  0  0  0  0  0  0  0  0  0
   -5.3784   -3.6288   -2.6195 O   0  0  0  0  0  0  0  0  0  0  0  0
   -5.0239   -1.5372    0.2759 O   0  0  0  0  0  0  0  0  0  0  0  0
    0.6042    3.3488    0.4249 O   0  0  0  0  0  0  0  0  0  0  0  0
    6.2227    1.9216    4.2057 O   0  0  0  0  0  0  0  0  0  0  0  0
   -3.5860   -2.1334   -1.3541 N   0  0  0  0  0  0  0  0  0  0  0  0
    0.4996    1.1472   -0.0555 N   0  0  0  0  0  0  0  0  0  0  0  0
   -4.9444   -5.5891   -4.2341 H   0  0  0  0  0  0  0  0  0  0  0  0
   -5.5126   -4.2703   -5.2294 H   0  0  0  0  0  0  0  0  0  0  0  0
   -6.5310   -5.6651   -4.9619 H   0  0  0  0  0  0  0  0  0  0  0  0
   -6.7981   -5.1011   -2.6578 H   0  0  0  0  0  0  0  0  0  0  0  0
   -7.1668   -3.6836   -3.6111 H   0  0  0  0  0  0  0  0  0  0  0  0
   -6.0274   -3.8806   -0.7113 H   0  0  0  0  0  0  0  0  0  0  0  0
   -6.6965   -2.5058   -1.5578 H   0  0  0  0  0  0  0  0  0  0  0  0
   -3.4333   -2.7085   -2.1328 H   0  0  0  0  0  0  0  0  0  0  0  0
   -1.5772   -1.6813   -1.2104 H   0  0  0  0  0  0  0  0  0  0  0  0
   -2.5441   -1.1996    0.1634 H   0  0  0  0  0  0  0  0  0  0  0  0
   -2.7457    0.1895   -2.5414 H   0  0  0  0  0  0  0  0  0  0  0  0
   -3.7331    1.0605    0.2370 H   0  0  0  0  0  0  0  0  0  0  0  0
   -3.9094    1.9667   -1.2469 H   0  0  0  0  0  0  0  0  0  0  0  0
   -1.4450    1.9808   -1.5981 H   0  0  0  0  0  0  0  0  0  0  0  0
   -1.0783    0.0096    0.6349 H   0  0  0  0  0  0  0  0  0  0  0  0
   -1.1444    1.7029    1.0621 H   0  0  0  0  0  0  0  0  0  0  0  0
    0.9840    0.3667   -0.3970 H   0  0  0  0  0  0  0  0  0  0  0  0
    2.8569    3.0155   -0.9347 H   0  0  0  0  0  0  0  0  0  0  0  0
    2.8670    1.2966   -0.6191 H   0  0  0  0  0  0  0  0  0  0  0  0
    3.3547    3.4919    1.3654 H   0  0  0  0  0  0  0  0  0  0  0  0
    5.0850    1.2518    0.3253 H   0  0  0  0  0  0  0  0  0  0  0  0
    5.2441    2.9360   -0.1130 H   0  0  0  0  0  0  0  0  0  0  0  0
    6.9078    2.2584    1.5790 H   0  0  0  0  0  0  0  0  0  0  0  0
    5.8389    3.5039    2.1795 H   0  0  0  0  0  0  0  0  0  0  0  0
    5.3070   -0.1473    1.7620 H   0  0  0  0  0  0  0  0  0  0  0  0
    5.4630   -0.5453    3.4560 H   0  0  0  0  0  0  0  0  0  0  0  0
    6.8591   -0.0085    2.5521 H   0  0  0  0  0  0  0  0  0  0  0  0
    5.8049    2.6766    4.6265 H   0  0  0  0  0  0  0  0  0  0  0  0
    3.7309    0.9232    4.0682 H   0  0  0  0  0  0  0  0  0  0  0  0
    3.8071    2.6431    3.7682 H   0  0  0  0  0  0  0  0  0  0  0  0
    2.0738    1.6765    2.4011 H   0  0  0  0  0  0  0  0  0  0  0  0
    3.1918    0.5007    1.7516 H   0  0  0  0  0  0  0  0  0  0  0  0
  1  2  1  0  0  0  0
  1 25  1  0  0  0  0
  1 26  1  0  0  0  0
  1 27  1  0  0  0  0
  2 19  1  0  0  0  0
  2 28  1  0  0  0  0
  2 29  1  0  0  0  0
  3 19  1  0  0  0  0
  3  4  1  0  0  0  0
  3 30  1  0  0  0  0
  3 31  1  0  0  0  0
  4 23  1  0  0  0  0
  4 20  2  0  0  0  0
  5 23  1  0  0  0  0
  5  6  1  0  0  0  0
  5 33  1  0  0  0  0
  5 34  1  0  0  0  0
  6  7  1  0  0  0  0
  6  8  1  0  0  0  0
  6 35  1  6  0  0  0
  7  8  1  0  0  0  0
  7 36  1  0  0  0  0
  7 37  1  0  0  0  0
  8  9  1  0  0  0  0
  8 38  1  6  0  0  0
  9 24  1  0  0  0  0
  9 39  1  0  0  0  0
  9 40  1  0  0  0  0
 10 24  1  0  0  0  0
 10 11  1  0  0  0  0
 10 21  2  0  0  0  0
 11 12  1  0  0  0  0
 11 42  1  0  0  0  0
 11 43  1  0  0  0  0
 12 13  1  0  0  0  0
 12 18  1  0  0  0  0
 12 44  1  1  0  0  0
 13 14  1  0  0  0  0
 13 45  1  0  0  0  0
 13 46  1  0  0  0  0
 14 15  1  0  0  0  0
 14 47  1  0  0  0  0
 14 48  1  0  0  0  0
 15 16  1  0  0  0  0
 15 22  1  1  0  0  0
 15 17  1  0  0  0  0
 16 49  1  0  0  0  0
 16 50  1  0  0  0  0
 16 51  1  0  0  0  0
 17 18  1  0  0  0  0
 17 53  1  0  0  0  0
 17 54  1  0  0  0  0
 18 55  1  0  0  0  0
 18 56  1  0  0  0  0
 22 52  1  0  0  0  0
 23 32  1  0  0  0  0
 24 41  1  0  0  0  0
M  END
>  <score>
0.4362068772315979

$$$$
PV-003428869991
 OpenBabel08202115463D

 46 48  0  0  0  0  0  0  0  0999 V2000
   -2.8597   -3.0640   -3.2672 C   0  0  0  0  0  0  0  0  0  0  0  0
   -4.0703   -2.4949   -2.5153 C   0  0  1  0  0  0  0  0  0  0  0  0
   -5.4281   -2.5746   -3.2166 C   0  0  0  0  0  0  0  0  0  0  0  0
   -4.0454   -2.6430   -1.0232 C   0  0  0  0  0  0  0  0  0  0  0  0
   -3.8005   -1.3054   -1.6484 C   0  0  1  0  0  0  0  0  0  0  0  0
   -2.4257   -0.6392   -1.5869 C   0  0  0  0  0  0  0  0  0  0  0  0
   -1.1951    1.4593   -1.1377 C   0  0  0  0  0  0  0  0  0  0  0  0
   -0.8934    1.6039    0.3545 C   0  0  1  0  0  0  0  0  0  0  0  0
   -0.0706    0.6079    1.1160 C   0  0  0  0  0  0  0  0  0  0  0  0
    0.4564    1.9877    0.8739 C   0  0  1  0  0  0  0  0  0  0  0  0
    1.6194    2.3258   -0.0445 C   0  0  0  0  0  0  0  0  0  0  0  0
    3.7428    1.2815    0.7522 C   0  0  0  0  0  0  0  0  0  0  0  0
    5.0621    1.4245    1.4805 C   0  0  0  0  0  0  0  0  0  0  0  0
    4.9119    0.9425    2.9011 C   0  0  0  0  0  0  0  0  0  0  0  0
    4.9018   -0.3585    3.3448 C   0  0  0  0  0  0  0  0  0  0  0  0
    4.7525    1.7257    4.0524 C   0  0  0  0  0  0  0  0  0  0  0  0
   -5.6680   -3.7925   -3.7052 F   0  0  0  0  0  0  0  0  0  0  0  0
   -5.5130   -1.7225   -4.2397 F   0  0  0  0  0  0  0  0  0  0  0  0
   -6.4327   -2.2853   -2.3869 F   0  0  0  0  0  0  0  0  0  0  0  0
   -1.4108   -1.3155   -1.6337 O   0  0  0  0  0  0  0  0  0  0  0  0
    3.3929    0.2351    0.2374 O   0  0  0  0  0  0  0  0  0  0  0  0
   -2.3978    0.6800   -1.3910 N   0  0  0  0  0  0  0  0  0  0  0  0
    2.8987    2.3781    0.6653 N   0  0  0  0  0  0  0  0  0  0  0  0
    4.7432   -0.3131    4.6890 N   0  0  0  0  0  0  0  0  0  0  0  0
    4.6558    0.9627    5.1451 N   0  0  0  0  0  0  0  0  0  0  0  0
   -2.5646   -3.9901   -2.8199 H   0  0  0  0  0  0  0  0  0  0  0  0
   -2.0484   -2.3683   -3.2148 H   0  0  0  0  0  0  0  0  0  0  0  0
   -3.1221   -3.2303   -4.2911 H   0  0  0  0  0  0  0  0  0  0  0  0
   -3.2416   -3.1681   -0.5510 H   0  0  0  0  0  0  0  0  0  0  0  0
   -4.9541   -2.8253   -0.4884 H   0  0  0  0  0  0  0  0  0  0  0  0
   -4.6206   -0.6229   -1.5670 H   0  0  0  0  0  0  0  0  0  0  0  0
   -3.2514    1.1605   -1.4199 H   0  0  0  0  0  0  0  0  0  0  0  0
   -1.3241    2.4350   -1.5575 H   0  0  0  0  0  0  0  0  0  0  0  0
   -0.3664    0.9741   -1.6096 H   0  0  0  0  0  0  0  0  0  0  0  0
   -1.7075    2.0132    0.9154 H   0  0  0  0  0  0  0  0  0  0  0  0
    0.3637   -0.2275    0.6076 H   0  0  0  0  0  0  0  0  0  0  0  0
   -0.3647    0.3128    2.1015 H   0  0  0  0  0  0  0  0  0  0  0  0
    0.4138    2.6146    1.7400 H   0  0  0  0  0  0  0  0  0  0  0  0
    1.4364    3.2803   -0.4921 H   0  0  0  0  0  0  0  0  0  0  0  0
    1.6814    1.5791   -0.8084 H   0  0  0  0  0  0  0  0  0  0  0  0
    3.1678    3.2172    1.0940 H   0  0  0  0  0  0  0  0  0  0  0  0
    5.3573    2.4530    1.4832 H   0  0  0  0  0  0  0  0  0  0  0  0
    5.8080    0.8401    0.9836 H   0  0  0  0  0  0  0  0  0  0  0  0
    4.9975   -1.2134    2.7605 H   0  0  0  0  0  0  0  0  0  0  0  0
    4.6971   -1.1058    5.2634 H   0  0  0  0  0  0  0  0  0  0  0  0
    4.7145    2.7650    4.0558 H   0  0  0  0  0  0  0  0  0  0  0  0
  1 26  1  0  0  0  0
  1 27  1  0  0  0  0
  1 28  1  0  0  0  0
  2  1  1  6  0  0  0
  2  3  1  0  0  0  0
  2  4  1  0  0  0  0
  2  5  1  0  0  0  0
  3 17  1  0  0  0  0
  3 18  1  0  0  0  0
  3 19  1  0  0  0  0
  4  5  1  0  0  0  0
  4 29  1  0  0  0  0
  4 30  1  0  0  0  0
  5  6  1  0  0  0  0
  5 31  1  1  0  0  0
  6 22  1  0  0  0  0
  6 20  2  0  0  0  0
  7 22  1  0  0  0  0
  7  8  1  0  0  0  0
  7 33  1  0  0  0  0
  7 34  1  0  0  0  0
  8  9  1  0  0  0  0
  8 10  1  0  0  0  0
  8 35  1  1  0  0  0
  9 10  1  0  0  0  0
  9 36  1  0  0  0  0
  9 37  1  0  0  0  0
 10 11  1  0  0  0  0
 10 38  1  1  0  0  0
 11 23  1  0  0  0  0
 11 39  1  0  0  0  0
 11 40  1  0  0  0  0
 12 23  1  0  0  0  0
 12 13  1  0  0  0  0
 12 21  2  0  0  0  0
 13 14  1  0  0  0  0
 13 42  1  0  0  0  0
 13 43  1  0  0  0  0
 14 16  1  0  0  0  0
 14 15  2  0  0  0  0
 15 24  1  0  0  0  0
 15 44  1  0  0  0  0
 16 46  1  0  0  0  0
 16 25  2  0  0  0  0
 22 32  1  0  0  0  0
 23 41  1  0  0  0  0
 24 25  1  0  0  0  0
 24 45  1  0  0  0  0
M  END
>  <score>
0.43621766567230225

$$$$
PV-003943233329
 OpenBabel08202115463D

 52 54  0  0  0  0  0  0  0  0999 V2000
   -6.5194   -3.8064   -3.3457 C   0  0  0  0  0  0  0  0  0  0  0  0
   -5.8146   -2.4868   -3.0971 C   0  0  0  0  0  0  0  0  0  0  0  0
   -4.5284   -2.6304   -2.2806 C   0  0  2  0  0  0  0  0  0  0  0  0
   -3.7946   -1.3320   -2.0068 C   0  0  0  0  0  0  0  0  0  0  0  0
   -1.8083   -0.3751   -0.9280 C   0  0  1  0  0  0  0  0  0  0  0  0
   -2.4628    0.5797    0.0623 C   0  0  0  0  0  0  0  0  0  0  0  0
   -1.4825    1.6593    0.4815 C   0  0  0  0  0  0  0  0  0  0  0  0
   -0.2033    1.0555    1.0325 C   0  0  0  0  0  0  0  0  0  0  0  0
    1.6305    0.2800   -0.4224 C   0  0  0  0  0  0  0  0  0  0  0  0
    2.4772    1.3370    0.2596 C   0  0  2  0  0  0  0  0  0  0  0  0
    2.0751    2.7355   -0.2615 C   0  0  0  0  0  0  0  0  0  0  0  0
    3.9848    1.0485    0.3686 C   0  0  0  0  0  0  0  0  0  0  0  0
    4.2287    1.1120    1.9269 C   0  0  2  0  0  0  0  0  0  0  0  0
    5.7806    1.0382    1.9766 C   0  0  0  0  0  0  0  0  0  0  0  0
    5.9802    0.8872    3.5941 C   0  0  0  0  0  0  0  0  0  0  0  0
    4.4726    1.1755    3.4850 C   0  0  0  0  0  0  0  0  0  0  0  0
    2.6767    1.1860    1.8770 C   0  0  0  0  0  0  0  0  0  0  0  0
   -0.5107   -0.9465   -0.3746 C   0  0  0  0  0  0  0  0  0  0  0  0
   -3.6352   -3.4309   -3.0080 F   0  0  0  0  0  0  0  0  0  0  0  0
    6.3304   -0.3308    4.0479 F   0  0  0  0  0  0  0  0  0  0  0  0
    6.7345    1.8290    4.2017 F   0  0  0  0  0  0  0  0  0  0  0  0
   -4.1204   -0.2493   -2.4573 O   0  0  0  0  0  0  0  0  0  0  0  0
    2.0759   -0.3946   -1.3470 O   0  0  0  0  0  0  0  0  0  0  0  0
   -2.7325   -1.4772   -1.2093 N   0  0  0  0  0  0  0  0  0  0  0  0
    0.3819    0.1388    0.0500 N   0  0  0  0  0  0  0  0  0  0  0  0
   -6.7730   -4.2578   -2.4093 H   0  0  0  0  0  0  0  0  0  0  0  0
   -5.8713   -4.4593   -3.8921 H   0  0  0  0  0  0  0  0  0  0  0  0
   -7.4112   -3.6332   -3.9110 H   0  0  0  0  0  0  0  0  0  0  0  0
   -6.4824   -1.8400   -2.5673 H   0  0  0  0  0  0  0  0  0  0  0  0
   -5.5693   -2.0498   -4.0425 H   0  0  0  0  0  0  0  0  0  0  0  0
   -4.7675   -3.0941   -1.3465 H   0  0  0  0  0  0  0  0  0  0  0  0
   -2.5658   -2.3510   -0.7981 H   0  0  0  0  0  0  0  0  0  0  0  0
   -1.5971    0.1539   -1.8337 H   0  0  0  0  0  0  0  0  0  0  0  0
   -2.7748    0.0318    0.9268 H   0  0  0  0  0  0  0  0  0  0  0  0
   -3.3143    1.0360   -0.3979 H   0  0  0  0  0  0  0  0  0  0  0  0
   -1.2449    2.2640   -0.3687 H   0  0  0  0  0  0  0  0  0  0  0  0
   -1.9350    2.2672    1.2369 H   0  0  0  0  0  0  0  0  0  0  0  0
   -0.4237    0.5180    1.9311 H   0  0  0  0  0  0  0  0  0  0  0  0
    0.4944    1.8380    1.2463 H   0  0  0  0  0  0  0  0  0  0  0  0
    2.4120    3.4832    0.4258 H   0  0  0  0  0  0  0  0  0  0  0  0
    1.0104    2.7893   -0.3529 H   0  0  0  0  0  0  0  0  0  0  0  0
    2.5247    2.9023   -1.2180 H   0  0  0  0  0  0  0  0  0  0  0  0
    4.5592    1.7918   -0.1439 H   0  0  0  0  0  0  0  0  0  0  0  0
    4.2231    0.0811   -0.0216 H   0  0  0  0  0  0  0  0  0  0  0  0
    6.1587    0.1898    1.4453 H   0  0  0  0  0  0  0  0  0  0  0  0
    6.2366    1.9290    1.5980 H   0  0  0  0  0  0  0  0  0  0  0  0
    4.2342    2.1429    3.8752 H   0  0  0  0  0  0  0  0  0  0  0  0
    3.8982    0.4323    3.9974 H   0  0  0  0  0  0  0  0  0  0  0  0
    2.2207    0.2952    2.2557 H   0  0  0  0  0  0  0  0  0  0  0  0
    2.2987    2.0344    2.4083 H   0  0  0  0  0  0  0  0  0  0  0  0
   -0.7302   -1.5722    0.4652 H   0  0  0  0  0  0  0  0  0  0  0  0
   -0.0272   -1.5247   -1.1341 H   0  0  0  0  0  0  0  0  0  0  0  0
  1  2  1  0  0  0  0
  1 26  1  0  0  0  0
  1 27  1  0  0  0  0
  1 28  1  0  0  0  0
  2  3  1  0  0  0  0
  2 29  1  0  0  0  0
  2 30  1  0  0  0  0
  3 19  1  0  0  0  0
  3  4  1  0  0  0  0
  3 31  1  1  0  0  0
  4 24  1  0  0  0  0
  4 22  2  0  0  0  0
  5 24  1  0  0  0  0
  5  6  1  0  0  0  0
  5 18  1  0  0  0  0
  5 33  1  6  0  0  0
  6  7  1  0  0  0  0
  6 34  1  0  0  0  0
  6 35  1  0  0  0  0
  7  8  1  0  0  0  0
  7 36  1  0  0  0  0
  7 37  1  0  0  0  0
  8 25  1  0  0  0  0
  8 38  1  0  0  0  0
  8 39  1  0  0  0  0
  9 25  1  0  0  0  0
  9 23  2  0  0  0  0
 10  9  1  6  0  0  0
 10 11  1  0  0  0  0
 10 12  1  0  0  0  0
 10 17  1  0  0  0  0
 11 40  1  0  0  0  0
 11 41  1  0  0  0  0
 11 42  1  0  0  0  0
 12 43  1  0  0  0  0
 12 44  1  0  0  0  0
 13 12  1  1  0  0  0
 13 14  1  0  0  0  0
 13 16  1  0  0  0  0
 13 17  1  0  0  0  0
 14 15  1  0  0  0  0
 14 45  1  0  0  0  0
 14 46  1  0  0  0  0
 15 20  1  0  0  0  0
 15 21  1  0  0  0  0
 15 16  1  0  0  0  0
 16 47  1  0  0  0  0
 16 48  1  0  0  0  0
 17 49  1  0  0  0  0
 17 50  1  0  0  0  0
 18 25  1  0  0  0  0
 18 51  1  0  0  0  0
 18 52  1  0  0  0  0
 24 32  1  0  0  0  0
M  END
>  <score>
0.43621999025344849

$$$$
Z4342110167
 OpenBabel08202115463D

 46 48  0  0  0  0  0  0  0  0999 V2000
    1.6654    3.1854    0.9700 C   0  0  0  0  0  0  0  0  0  0  0  0
    1.8396    1.6855    0.9322 C   0  0  0  0  0  0  0  0  0  0  0  0
    1.1007    0.7930    0.2503 C   0  0  0  0  0  0  0  0  0  0  0  0
   -0.7676   -0.1383   -1.1212 C   0  0  0  0  0  0  0  0  0  0  0  0
   -1.9323    0.2690   -1.9893 C   0  0  0  0  0  0  0  0  0  0  0  0
   -2.9532   -0.8231   -2.2643 C   0  0  0  0  0  0  0  0  0  0  0  0
   -5.3878   -1.6801   -3.4125 C   0  0  0  0  0  0  0  0  0  0  0  0
   -6.4005   -1.5802   -4.3539 C   0  0  0  0  0  0  0  0  0  0  0  0
   -7.2564   -2.6450   -4.5636 C   0  0  0  0  0  0  0  0  0  0  0  0
   -7.0989   -3.8146   -3.8365 C   0  0  0  0  0  0  0  0  0  0  0  0
   -6.0892   -3.9140   -2.8979 C   0  0  0  0  0  0  0  0  0  0  0  0
   -5.2307   -2.8463   -2.6874 C   0  0  0  0  0  0  0  0  0  0  0  0
    2.8196    0.9133    1.6097 C   0  0  0  0  0  0  0  0  0  0  0  0
    3.9253    1.3568    2.5229 C   0  0  0  0  0  0  0  0  0  0  0  0
    3.6112    0.8977    3.9419 C   0  0  0  0  0  0  0  0  0  0  0  0
    4.7986    1.2223    4.8635 C   0  0  0  0  0  0  0  0  0  0  0  0
    6.3334    1.0870    3.0299 C   0  0  0  0  0  0  0  0  0  0  0  0
    5.2427    0.7690    2.0294 C   0  0  0  0  0  0  0  0  0  0  0  0
   -0.0115    0.8921   -0.6050 N   0  0  0  0  0  0  0  0  0  0  0  0
    2.6778   -0.3672    1.3540 N   0  0  0  0  0  0  0  0  0  0  0  0
   -0.4794   -1.2928   -0.8678 O   0  0  0  0  0  0  0  0  0  0  0  0
    1.5777   -0.4570    0.4738 O   0  0  0  0  0  0  0  0  0  0  0  0
    5.9834    0.6054    4.3360 O   0  0  0  0  0  0  0  0  0  0  0  0
   -4.3672   -0.2485   -3.2347 S   0  0  0  0  0  0  0  0  0  0  0  0
   -4.2436   -2.9452   -1.7765 F   0  0  0  0  0  0  0  0  0  0  0  0
    2.6174    3.6520    1.1146 H   0  0  0  0  0  0  0  0  0  0  0  0
    1.0134    3.4483    1.7767 H   0  0  0  0  0  0  0  0  0  0  0  0
    1.2420    3.5184    0.0455 H   0  0  0  0  0  0  0  0  0  0  0  0
   -0.2798    1.7984   -0.8639 H   0  0  0  0  0  0  0  0  0  0  0  0
   -1.5432    0.6013   -2.9290 H   0  0  0  0  0  0  0  0  0  0  0  0
   -2.4374    1.0787   -1.5054 H   0  0  0  0  0  0  0  0  0  0  0  0
   -3.3125   -1.1962   -1.3281 H   0  0  0  0  0  0  0  0  0  0  0  0
   -2.4703   -1.6124   -2.8017 H   0  0  0  0  0  0  0  0  0  0  0  0
   -6.5162   -0.7041   -4.9023 H   0  0  0  0  0  0  0  0  0  0  0  0
   -8.0186   -2.5687   -5.2669 H   0  0  0  0  0  0  0  0  0  0  0  0
   -7.7405   -4.6172   -3.9972 H   0  0  0  0  0  0  0  0  0  0  0  0
   -5.9736   -4.7901   -2.3495 H   0  0  0  0  0  0  0  0  0  0  0  0
    3.9933    2.4245    2.5091 H   0  0  0  0  0  0  0  0  0  0  0  0
    3.4370   -0.1580    3.9441 H   0  0  0  0  0  0  0  0  0  0  0  0
    2.7376    1.4047    4.2949 H   0  0  0  0  0  0  0  0  0  0  0  0
    4.9368    2.2823    4.9102 H   0  0  0  0  0  0  0  0  0  0  0  0
    4.6042    0.8438    5.8452 H   0  0  0  0  0  0  0  0  0  0  0  0
    6.4720    2.1471    3.0725 H   0  0  0  0  0  0  0  0  0  0  0  0
    7.2437    0.6201    2.7164 H   0  0  0  0  0  0  0  0  0  0  0  0
    5.1463   -0.2920    1.9298 H   0  0  0  0  0  0  0  0  0  0  0  0
    5.4919    1.1957    1.0803 H   0  0  0  0  0  0  0  0  0  0  0  0
  1  2  1  0  0  0  0
  1 26  1  0  0  0  0
  1 27  1  0  0  0  0
  1 28  1  0  0  0  0
  2 13  1  0  0  0  0
  2  3  2  0  0  0  0
  3 19  1  0  0  0  0
  3 22  1  0  0  0  0
  4 19  1  0  0  0  0
  4  5  1  0  0  0  0
  4 21  2  0  0  0  0
  5  6  1  0  0  0  0
  5 30  1  0  0  0  0
  5 31  1  0  0  0  0
  6 24  1  0  0  0  0
  6 32  1  0  0  0  0
  6 33  1  0  0  0  0
  7 24  1  0  0  0  0
  7 12  1  0  0  0  0
  7  8  2  0  0  0  0
  8  9  1  0  0  0  0
  8 34  1  0  0  0  0
  9 35  1  0  0  0  0
  9 10  2  0  0  0  0
 10 11  1  0  0  0  0
 10 36  1  0  0  0  0
 11 37  1  0  0  0  0
 11 12  2  0  0  0  0
 12 25  1  0  0  0  0
 13 14  1  0  0  0  0
 13 20  2  0  0  0  0
 14 15  1  0  0  0  0
 14 18  1  0  0  0  0
 14 38  1  0  0  0  0
 15 16  1  0  0  0  0
 15 39  1  0  0  0  0
 15 40  1  0  0  0  0
 16 23  1  0  0  0  0
 16 41  1  0  0  0  0
 16 42  1  0  0  0  0
 17 23  1  0  0  0  0
 17 18  1  0  0  0  0
 17 43  1  0  0  0  0
 17 44  1  0  0  0  0
 18 45  1  0  0  0  0
 18 46  1  0  0  0  0
 19 29  1  0  0  0  0
 20 22  1  0  0  0  0
M  END
>  <score>
0.43635267019271851

$$$$
PV-004022081951
 OpenBabel08202115463D

 53 55  0  0  0  0  0  0  0  0999 V2000
   -8.2488   -3.3983   -4.8144 C   0  0  0  0  0  0  0  0  0  0  0  0
   -7.2123   -2.7260   -3.9609 C   0  0  0  0  0  0  0  0  0  0  0  0
   -7.3212   -1.5935   -3.2081 C   0  0  0  0  0  0  0  0  0  0  0  0
   -6.1143   -1.2630   -2.5440 C   0  0  0  0  0  0  0  0  0  0  0  0
   -5.1156   -2.1578   -2.7950 C   0  0  0  0  0  0  0  0  0  0  0  0
   -3.7445   -2.2942   -2.2143 C   0  0  0  0  0  0  0  0  0  0  0  0
   -1.9588   -1.2314   -0.9252 C   0  0  2  0  0  0  0  0  0  0  0  0
   -1.8206   -0.4101    0.3697 C   0  0  0  0  0  0  0  0  0  0  0  0
   -0.4810    0.0767   -0.1841 C   0  0  2  0  0  0  0  0  0  0  0  0
   -1.0178   -0.2101   -1.5896 C   0  0  0  0  0  0  0  0  0  0  0  0
    0.8393   -0.5264    0.2963 C   0  0  0  0  0  0  0  0  0  0  0  0
    0.9851    0.7209    1.1868 C   0  0  2  0  0  0  0  0  0  0  0  0
    3.3107    0.6316    1.9616 C   0  0  0  0  0  0  0  0  0  0  0  0
    4.7095    1.2396    1.8389 C   0  0  2  0  0  0  0  0  0  0  0  0
    5.7554    0.2154    1.4098 C   0  0  0  0  0  0  0  0  0  0  0  0
    5.0447    1.8041    3.2185 C   0  0  0  0  0  0  0  0  0  0  0  0
    3.9619    2.7274    3.7529 C   0  0  0  0  0  0  0  0  0  0  0  0
    6.3851    2.5196    3.1753 C   0  0  0  0  0  0  0  0  0  0  0  0
    0.0738    1.4530    0.1849 C   0  0  0  0  0  0  0  0  0  0  0  0
   -3.0708   -3.3101   -2.4146 O   0  0  0  0  0  0  0  0  0  0  0  0
    3.1064   -0.3660    2.6520 O   0  0  0  0  0  0  0  0  0  0  0  0
    4.7443    2.3685    0.9724 O   0  0  0  0  0  0  0  0  0  0  0  0
   -3.3037   -1.2687   -1.4801 N   0  0  0  0  0  0  0  0  0  0  0  0
    2.3459    1.2522    1.2766 N   0  0  0  0  0  0  0  0  0  0  0  0
   -5.6392   -3.4024   -3.8536 S   0  0  0  0  0  0  0  0  0  0  0  0
   -7.7656   -3.9989   -5.5565 H   0  0  0  0  0  0  0  0  0  0  0  0
   -8.8517   -2.6558   -5.2940 H   0  0  0  0  0  0  0  0  0  0  0  0
   -8.8676   -4.0192   -4.2008 H   0  0  0  0  0  0  0  0  0  0  0  0
   -8.1945   -1.0341   -3.1303 H   0  0  0  0  0  0  0  0  0  0  0  0
   -6.0020   -0.4295   -1.9322 H   0  0  0  0  0  0  0  0  0  0  0  0
   -3.9069   -0.5155   -1.3092 H   0  0  0  0  0  0  0  0  0  0  0  0
   -1.5687   -2.2260   -0.8669 H   0  0  0  0  0  0  0  0  0  0  0  0
   -1.7513   -0.9921    1.2649 H   0  0  0  0  0  0  0  0  0  0  0  0
   -2.5582    0.3545    0.4970 H   0  0  0  0  0  0  0  0  0  0  0  0
   -1.5107    0.6155   -2.0592 H   0  0  0  0  0  0  0  0  0  0  0  0
   -0.3035   -0.6312   -2.2659 H   0  0  0  0  0  0  0  0  0  0  0  0
    0.7436   -1.4494    0.8290 H   0  0  0  0  0  0  0  0  0  0  0  0
    1.5886   -0.6271   -0.4609 H   0  0  0  0  0  0  0  0  0  0  0  0
    0.5761    0.6181    2.1702 H   0  0  0  0  0  0  0  0  0  0  0  0
    2.5568    2.0925    0.8184 H   0  0  0  0  0  0  0  0  0  0  0  0
    5.8205   -0.5585    2.1459 H   0  0  0  0  0  0  0  0  0  0  0  0
    6.7064    0.6962    1.3130 H   0  0  0  0  0  0  0  0  0  0  0  0
    5.4729   -0.2100    0.4695 H   0  0  0  0  0  0  0  0  0  0  0  0
    5.2925    2.1702    0.2096 H   0  0  0  0  0  0  0  0  0  0  0  0
    5.1352    0.9797    3.8946 H   0  0  0  0  0  0  0  0  0  0  0  0
    3.0262    2.2086    3.7692 H   0  0  0  0  0  0  0  0  0  0  0  0
    3.8821    3.5866    3.1203 H   0  0  0  0  0  0  0  0  0  0  0  0
    4.2153    3.0368    4.7453 H   0  0  0  0  0  0  0  0  0  0  0  0
    7.1169    1.8803    2.7274 H   0  0  0  0  0  0  0  0  0  0  0  0
    6.6893    2.7668    4.1709 H   0  0  0  0  0  0  0  0  0  0  0  0
    6.2926    3.4152    2.5972 H   0  0  0  0  0  0  0  0  0  0  0  0
    0.5896    1.9558   -0.6063 H   0  0  0  0  0  0  0  0  0  0  0  0
   -0.6366    2.1191    0.6282 H   0  0  0  0  0  0  0  0  0  0  0  0
  1  2  1  0  0  0  0
  1 26  1  0  0  0  0
  1 27  1  0  0  0  0
  1 28  1  0  0  0  0
  2 25  1  0  0  0  0
  2  3  2  0  0  0  0
  3  4  1  0  0  0  0
  3 29  1  0  0  0  0
  4 30  1  0  0  0  0
  4  5  2  0  0  0  0
  5  6  1  0  0  0  0
  5 25  1  0  0  0  0
  6 23  1  0  0  0  0
  6 20  2  0  0  0  0
  7 23  1  0  0  0  0
  7  8  1  0  0  0  0
  7 10  1  0  0  0  0
  7 32  1  1  0  0  0
  8 33  1  0  0  0  0
  8 34  1  0  0  0  0
  9  8  1  1  0  0  0
  9 10  1  0  0  0  0
  9 11  1  0  0  0  0
  9 19  1  0  0  0  0
 10 35  1  0  0  0  0
 10 36  1  0  0  0  0
 11 12  1  0  0  0  0
 11 37  1  0  0  0  0
 11 38  1  0  0  0  0
 12 24  1  0  0  0  0
 12 19  1  0  0  0  0
 12 39  1  1  0  0  0
 13 24  1  0  0  0  0
 13 21  2  0  0  0  0
 14 13  1  1  0  0  0
 14 15  1  0  0  0  0
 14 22  1  0  0  0  0
 14 16  1  0  0  0  0
 15 41  1  0  0  0  0
 15 42  1  0  0  0  0
 15 43  1  0  0  0  0
 16 17  1  0  0  0  0
 16 18  1  0  0  0  0
 16 45  1  0  0  0  0
 17 46  1  0  0  0  0
 17 47  1  0  0  0  0
 17 48  1  0  0  0  0
 18 49  1  0  0  0  0
 18 50  1  0  0  0  0
 18 51  1  0  0  0  0
 19 52  1  0  0  0  0
 19 53  1  0  0  0  0
 22 44  1  0  0  0  0
 23 31  1  0  0  0  0
 24 40  1  0  0  0  0
M  END
>  <score>
0.43651926517486572

$$$$
PV-002900197269
 OpenBabel08202115463D

 54 54  0  0  0  0  0  0  0  0999 V2000
   -1.8053    1.5268    0.8277 C   0  0  0  0  0  0  0  0  0  0  0  0
   -1.0657    0.3330    0.2291 C   0  0  1  0  0  0  0  0  0  0  0  0
   -1.1979    0.3064   -1.2778 C   0  0  0  0  0  0  0  0  0  0  0  0
   -3.0487   -1.1585   -2.0039 C   0  0  0  0  0  0  0  0  0  0  0  0
   -5.0806   -2.3919   -2.4598 C   0  0  0  0  0  0  0  0  0  0  0  0
   -4.3831   -2.9482   -3.6904 C   0  0  0  0  0  0  0  0  0  0  0  0
   -6.5532   -2.1385   -2.7385 C   0  0  0  0  0  0  0  0  0  0  0  0
   -4.8565   -3.2919   -1.2556 C   0  0  0  0  0  0  0  0  0  0  0  0
    0.3662    0.3716    0.6228 C   0  0  2  0  0  0  0  0  0  0  0  0
    1.1067    1.5817    0.0875 C   0  0  0  0  0  0  0  0  0  0  0  0
    3.1723    2.8856    0.0248 C   0  0  0  0  0  0  0  0  0  0  0  0
    3.0980    0.6345    1.0858 C   0  0  0  0  0  0  0  0  0  0  0  0
    4.6655    0.7245    0.9960 C   0  0  0  0  0  0  0  0  0  0  0  0
    4.7474    0.9247    2.5307 C   0  0  0  0  0  0  0  0  0  0  0  0
    5.3217    2.2781    2.9553 C   0  0  0  0  0  0  0  0  0  0  0  0
    5.4811   -0.1950    3.2687 C   0  0  0  0  0  0  0  0  0  0  0  0
    3.1801    0.8347    2.6206 C   0  0  0  0  0  0  0  0  0  0  0  0
   -2.5910    0.0698   -1.6603 N   0  0  0  0  0  0  0  0  0  0  0  0
    2.3969    1.7045    0.3806 N   0  0  0  0  0  0  0  0  0  0  0  0
   -2.3679   -2.1509   -2.0677 O   0  0  0  0  0  0  0  0  0  0  0  0
   -4.3768   -1.1044   -2.2630 O   0  0  0  0  0  0  0  0  0  0  0  0
    0.5276    2.4236   -0.5977 O   0  0  0  0  0  0  0  0  0  0  0  0
    0.9177   -0.8139    0.1335 F   0  0  0  0  0  0  0  0  0  0  0  0
   -2.8602    1.3842    0.7195 H   0  0  0  0  0  0  0  0  0  0  0  0
   -1.5122    2.4202    0.3171 H   0  0  0  0  0  0  0  0  0  0  0  0
   -1.5619    1.6127    1.8661 H   0  0  0  0  0  0  0  0  0  0  0  0
   -1.4991   -0.5632    0.6214 H   0  0  0  0  0  0  0  0  0  0  0  0
   -0.5854   -0.4773   -1.6721 H   0  0  0  0  0  0  0  0  0  0  0  0
   -0.8768    1.2458   -1.6770 H   0  0  0  0  0  0  0  0  0  0  0  0
   -3.2143    0.8260   -1.6682 H   0  0  0  0  0  0  0  0  0  0  0  0
   -3.9499   -3.8982   -3.4566 H   0  0  0  0  0  0  0  0  0  0  0  0
   -3.6137   -2.2722   -4.0002 H   0  0  0  0  0  0  0  0  0  0  0  0
   -5.0947   -3.0658   -4.4808 H   0  0  0  0  0  0  0  0  0  0  0  0
   -6.6500   -1.3678   -3.4744 H   0  0  0  0  0  0  0  0  0  0  0  0
   -7.0393   -1.8326   -1.8358 H   0  0  0  0  0  0  0  0  0  0  0  0
   -7.0069   -3.0370   -3.1017 H   0  0  0  0  0  0  0  0  0  0  0  0
   -5.5379   -3.0218   -0.4761 H   0  0  0  0  0  0  0  0  0  0  0  0
   -3.8517   -3.1765   -0.9064 H   0  0  0  0  0  0  0  0  0  0  0  0
   -5.0222   -4.3110   -1.5365 H   0  0  0  0  0  0  0  0  0  0  0  0
    0.4267    0.3873    1.6909 H   0  0  0  0  0  0  0  0  0  0  0  0
    2.5278    3.6160   -0.4179 H   0  0  0  0  0  0  0  0  0  0  0  0
    3.9357    2.6137   -0.6738 H   0  0  0  0  0  0  0  0  0  0  0  0
    3.6228    3.2946    0.9050 H   0  0  0  0  0  0  0  0  0  0  0  0
    2.6965   -0.3119    0.7889 H   0  0  0  0  0  0  0  0  0  0  0  0
    5.0223    1.5581    0.4280 H   0  0  0  0  0  0  0  0  0  0  0  0
    5.1343   -0.1720    0.6477 H   0  0  0  0  0  0  0  0  0  0  0  0
    5.3091    2.3525    4.0226 H   0  0  0  0  0  0  0  0  0  0  0  0
    4.7288    3.0641    2.5362 H   0  0  0  0  0  0  0  0  0  0  0  0
    6.3287    2.3641    2.6039 H   0  0  0  0  0  0  0  0  0  0  0  0
    4.8085   -1.0088    3.4426 H   0  0  0  0  0  0  0  0  0  0  0  0
    5.8442    0.1736    4.2053 H   0  0  0  0  0  0  0  0  0  0  0  0
    6.3043   -0.5337    2.6748 H   0  0  0  0  0  0  0  0  0  0  0  0
    2.8233    0.0011    3.1887 H   0  0  0  0  0  0  0  0  0  0  0  0
    2.7113    1.7312    2.9690 H   0  0  0  0  0  0  0  0  0  0  0  0
  1  2  1  0  0  0  0
  1 24  1  0  0  0  0
  1 25  1  0  0  0  0
  1 26  1  0  0  0  0
  2  3  1  0  0  0  0
  2  9  1  0  0  0  0
  2 27  1  1  0  0  0
  3 18  1  0  0  0  0
  3 28  1  0  0  0  0
  3 29  1  0  0  0  0
  4 18  1  0  0  0  0
  4 21  1  0  0  0  0
  4 20  2  0  0  0  0
  5 21  1  0  0  0  0
  5  6  1  0  0  0  0
  5  7  1  0  0  0  0
  5  8  1  0  0  0  0
  6 31  1  0  0  0  0
  6 32  1  0  0  0  0
  6 33  1  0  0  0  0
  7 34  1  0  0  0  0
  7 35  1  0  0  0  0
  7 36  1  0  0  0  0
  8 37  1  0  0  0  0
  8 38  1  0  0  0  0
  8 39  1  0  0  0  0
  9 23  1  0  0  0  0
  9 10  1  0  0  0  0
  9 40  1  1  0  0  0
 10 19  1  0  0  0  0
 10 22  2  0  0  0  0
 11 19  1  0  0  0  0
 11 41  1  0  0  0  0
 11 42  1  0  0  0  0
 11 43  1  0  0  0  0
 12 19  1  0  0  0  0
 12 13  1  0  0  0  0
 12 17  1  0  0  0  0
 12 44  1  0  0  0  0
 13 14  1  0  0  0  0
 13 45  1  0  0  0  0
 13 46  1  0  0  0  0
 14 15  1  0  0  0  0
 14 16  1  0  0  0  0
 14 17  1  0  0  0  0
 15 47  1  0  0  0  0
 15 48  1  0  0  0  0
 15 49  1  0  0  0  0
 16 50  1  0  0  0  0
 16 51  1  0  0  0  0
 16 52  1  0  0  0  0
 17 53  1  0  0  0  0
 17 54  1  0  0  0  0
 18 30  1  0  0  0  0
M  END
>  <score>
0.43663221597671509

$$$$
PV-003067197900
 OpenBabel08202115463D

 40 43  0  0  0  0  0  0  0  0999 V2000
    1.8163    3.4173    0.2590 O   0  0  0  0  0  0  0  0  0  0  0  0
    1.8781    2.2118    0.5218 C   0  0  0  0  0  0  0  0  0  0  0  0
    0.7887    1.2924    0.1051 C   0  0  0  0  0  0  0  0  0  0  0  0
   -0.3233    1.7586   -0.5665 C   0  0  0  0  0  0  0  0  0  0  0  0
   -1.1693   -0.3400   -0.6547 C   0  0  0  0  0  0  0  0  0  0  0  0
   -2.2537   -1.2547   -1.0735 C   0  0  0  0  0  0  0  0  0  0  0  0
   -2.2561   -2.5989   -0.6391 C   0  0  0  0  0  0  0  0  0  0  0  0
   -4.2132   -3.0562   -1.7497 C   0  0  0  0  0  0  0  0  0  0  0  0
   -5.2478   -3.9732   -2.0925 C   0  0  0  0  0  0  0  0  0  0  0  0
   -6.2654   -3.4926   -2.8821 C   0  0  0  0  0  0  0  0  0  0  0  0
   -6.2526   -2.1583   -3.3283 C   0  0  0  0  0  0  0  0  0  0  0  0
   -4.2890   -1.7250   -2.2435 C   0  0  0  0  0  0  0  0  0  0  0  0
   -3.2636   -0.8248   -1.8794 C   0  0  0  0  0  0  0  0  0  0  0  0
    0.8320   -0.0643    0.3660 C   0  0  0  0  0  0  0  0  0  0  0  0
    4.2776    1.5746    0.6273 C   0  0  0  0  0  0  0  0  0  0  0  0
    5.2763    2.2842    1.5073 C   0  0  0  0  0  0  0  0  0  0  0  0
    3.8901    1.9455    3.4091 C   0  0  0  0  0  0  0  0  0  0  0  0
    2.8728    1.2164    2.5678 C   0  0  0  0  0  0  0  0  0  0  0  0
   -1.3197    0.9512   -0.9588 N   0  0  0  0  0  0  0  0  0  0  0  0
   -3.1818   -3.4804   -0.9555 N   0  0  0  0  0  0  0  0  0  0  0  0
   -5.3095   -1.2784   -3.0430 N   0  0  0  0  0  0  0  0  0  0  0  0
   -0.1465   -0.9037   -0.0123 N   0  0  0  0  0  0  0  0  0  0  0  0
    2.9330    1.7042    1.1910 N   0  0  0  0  0  0  0  0  0  0  0  0
    5.2386    1.7656    2.8722 N   0  0  0  0  0  0  0  0  0  0  0  0
   -0.3910    2.7750   -0.7764 H   0  0  0  0  0  0  0  0  0  0  0  0
   -1.4749   -2.9132   -0.0288 H   0  0  0  0  0  0  0  0  0  0  0  0
   -5.2340   -4.9590   -1.7615 H   0  0  0  0  0  0  0  0  0  0  0  0
   -7.0502   -4.1197   -3.1514 H   0  0  0  0  0  0  0  0  0  0  0  0
   -7.0428   -1.8419   -3.9259 H   0  0  0  0  0  0  0  0  0  0  0  0
   -3.2797    0.1565   -2.2233 H   0  0  0  0  0  0  0  0  0  0  0  0
    1.6532   -0.4499    0.8744 H   0  0  0  0  0  0  0  0  0  0  0  0
    4.2953    2.0091   -0.3503 H   0  0  0  0  0  0  0  0  0  0  0  0
    4.5361    0.5383    0.5624 H   0  0  0  0  0  0  0  0  0  0  0  0
    6.2581    2.1413    1.1066 H   0  0  0  0  0  0  0  0  0  0  0  0
    5.0461    3.3290    1.5244 H   0  0  0  0  0  0  0  0  0  0  0  0
    5.8817    2.2539    3.4276 H   0  0  0  0  0  0  0  0  0  0  0  0
    3.8572    1.5629    4.4078 H   0  0  0  0  0  0  0  0  0  0  0  0
    3.6534    2.9889    3.4183 H   0  0  0  0  0  0  0  0  0  0  0  0
    1.8940    1.3891    2.9640 H   0  0  0  0  0  0  0  0  0  0  0  0
    3.0844    0.1676    2.5832 H   0  0  0  0  0  0  0  0  0  0  0  0
  2  3  1  0  0  0  0
  2 23  1  0  0  0  0
  2  1  2  0  0  0  0
  3 14  1  0  0  0  0
  3  4  2  0  0  0  0
  4 19  1  0  0  0  0
  4 25  1  0  0  0  0
  5  6  1  0  0  0  0
  5 22  1  0  0  0  0
  5 19  2  0  0  0  0
  6 13  1  0  0  0  0
  6  7  2  0  0  0  0
  7 20  1  0  0  0  0
  7 26  1  0  0  0  0
  8  9  1  0  0  0  0
  8 12  1  0  0  0  0
  8 20  2  0  0  0  0
  9 27  1  0  0  0  0
  9 10  2  0  0  0  0
 10 11  1  0  0  0  0
 10 28  1  0  0  0  0
 11 29  1  0  0  0  0
 11 21  2  0  0  0  0
 12 21  1  0  0  0  0
 12 13  2  0  0  0  0
 13 30  1  0  0  0  0
 14 31  1  0  0  0  0
 14 22  2  0  0  0  0
 15 23  1  0  0  0  0
 15 16  1  0  0  0  0
 15 32  1  0  0  0  0
 15 33  1  0  0  0  0
 16 24  1  0  0  0  0
 16 34  1  0  0  0  0
 16 35  1  0  0  0  0
 17 24  1  0  0  0  0
 17 18  1  0  0  0  0
 17 37  1  0  0  0  0
 17 38  1  0  0  0  0
 18 23  1  0  0  0  0
 18 39  1  0  0  0  0
 18 40  1  0  0  0  0
 24 36  1  0  0  0  0
M  END
>  <score>
0.43666559457778931

$$$$
Z4150462849
 OpenBabel08202115463D

 46 48  0  0  0  0  0  0  0  0999 V2000
   -8.6937   -2.7440   -4.4335 O   0  0  0  0  0  0  0  0  0  0  0  0
   -6.1668   -0.3739   -3.4704 O   0  0  0  0  0  0  0  0  0  0  0  0
   -0.2851   -0.4856    0.8449 O   0  0  0  0  0  0  0  0  0  0  0  0
    2.2499    0.4485    1.2997 O   0  0  0  0  0  0  0  0  0  0  0  0
    4.9287   -0.1019    4.6910 O   0  0  0  0  0  0  0  0  0  0  0  0
   -7.6801   -2.2540   -3.9635 C   0  0  0  0  0  0  0  0  0  0  0  0
   -7.4388   -0.7821   -3.9943 C   0  0  0  0  0  0  0  0  0  0  0  0
   -5.3594   -1.3003   -2.9544 C   0  0  0  0  0  0  0  0  0  0  0  0
   -4.1102   -0.7354   -2.3967 C   0  0  0  0  0  0  0  0  0  0  0  0
   -3.1235   -1.5433   -1.8534 C   0  0  0  0  0  0  0  0  0  0  0  0
   -1.9732   -0.9768   -1.3377 C   0  0  0  0  0  0  0  0  0  0  0  0
   -1.8037    0.3986   -1.3685 C   0  0  0  0  0  0  0  0  0  0  0  0
    0.0752    0.4937    0.1931 C   0  0  0  0  0  0  0  0  0  0  0  0
    1.3459    1.2261    0.5233 C   0  0  0  0  0  0  0  0  0  0  0  0
    3.5205    1.0714    1.4055 C   0  0  0  0  0  0  0  0  0  0  0  0
    4.4627    0.3198    2.3467 C   0  0  1  0  0  0  0  0  0  0  0  0
    5.8706    0.8518    2.1739 C   0  0  0  0  0  0  0  0  0  0  0  0
    6.8173    0.2598    3.2157 C   0  0  0  0  0  0  0  0  0  0  0  0
    6.2352    0.4536    4.6130 C   0  0  0  0  0  0  0  0  0  0  0  0
    3.9951    0.5146    3.7905 C   0  0  0  0  0  0  0  0  0  0  0  0
   -2.7877    1.2040   -1.9102 C   0  0  0  0  0  0  0  0  0  0  0  0
   -3.9415    0.6360   -2.4275 C   0  0  0  0  0  0  0  0  0  0  0  0
   -0.6239    0.9778   -0.8456 N   0  0  0  0  0  0  0  0  0  0  0  0
   -5.5432   -2.5591   -2.8948 N   0  0  0  0  0  0  0  0  0  0  0  0
   -6.7501   -3.0118   -3.4054 N   0  0  0  0  0  0  0  0  0  0  0  0
   -8.2049   -0.3064   -3.4184 H   0  0  0  0  0  0  0  0  0  0  0  0
   -7.5013   -0.4551   -5.0112 H   0  0  0  0  0  0  0  0  0  0  0  0
   -3.2488   -2.5755   -1.8339 H   0  0  0  0  0  0  0  0  0  0  0  0
   -1.2346   -1.5826   -0.9265 H   0  0  0  0  0  0  0  0  0  0  0  0
   -0.2918    1.7943   -1.2740 H   0  0  0  0  0  0  0  0  0  0  0  0
    1.0970    2.1096    1.0732 H   0  0  0  0  0  0  0  0  0  0  0  0
    1.8295    1.4990   -0.3913 H   0  0  0  0  0  0  0  0  0  0  0  0
    3.3854    2.0657    1.7770 H   0  0  0  0  0  0  0  0  0  0  0  0
    3.9656    1.1106    0.4333 H   0  0  0  0  0  0  0  0  0  0  0  0
    4.4480   -0.7233    2.1087 H   0  0  0  0  0  0  0  0  0  0  0  0
    6.2230    0.5952    1.1967 H   0  0  0  0  0  0  0  0  0  0  0  0
    5.8566    1.9164    2.2804 H   0  0  0  0  0  0  0  0  0  0  0  0
    7.7653    0.7522    3.1546 H   0  0  0  0  0  0  0  0  0  0  0  0
    6.9450   -0.7855    3.0262 H   0  0  0  0  0  0  0  0  0  0  0  0
    6.1862    1.4999    4.8316 H   0  0  0  0  0  0  0  0  0  0  0  0
    6.8669   -0.0314    5.3276 H   0  0  0  0  0  0  0  0  0  0  0  0
    3.9324    1.5610    4.0053 H   0  0  0  0  0  0  0  0  0  0  0  0
    3.0318    0.0660    3.9154 H   0  0  0  0  0  0  0  0  0  0  0  0
   -2.6624    2.2363   -1.9297 H   0  0  0  0  0  0  0  0  0  0  0  0
   -4.6801    1.2418   -2.8388 H   0  0  0  0  0  0  0  0  0  0  0  0
   -6.9293   -3.9736   -3.3481 H   0  0  0  0  0  0  0  0  0  0  0  0
  6  7  1  0  0  0  0
  6 25  1  0  0  0  0
  6  1  2  0  0  0  0
  7  2  1  0  0  0  0
  7 26  1  0  0  0  0
  7 27  1  0  0  0  0
  8  2  1  0  0  0  0
  8  9  1  0  0  0  0
  8 24  2  0  0  0  0
  9 22  1  0  0  0  0
  9 10  2  0  0  0  0
 10 11  1  0  0  0  0
 10 28  1  0  0  0  0
 11 29  1  0  0  0  0
 11 12  2  0  0  0  0
 12 23  1  0  0  0  0
 12 21  1  0  0  0  0
 13 23  1  0  0  0  0
 13 14  1  0  0  0  0
 13  3  2  0  0  0  0
 14  4  1  0  0  0  0
 14 31  1  0  0  0  0
 14 32  1  0  0  0  0
 15  4  1  0  0  0  0
 15 16  1  0  0  0  0
 15 33  1  0  0  0  0
 15 34  1  0  0  0  0
 16 17  1  0  0  0  0
 16 20  1  0  0  0  0
 16 35  1  6  0  0  0
 17 18  1  0  0  0  0
 17 36  1  0  0  0  0
 17 37  1  0  0  0  0
 18 19  1  0  0  0  0
 18 38  1  0  0  0  0
 18 39  1  0  0  0  0
 19  5  1  0  0  0  0
 19 40  1  0  0  0  0
 19 41  1  0  0  0  0
 20  5  1  0  0  0  0
 20 42  1  0  0  0  0
 20 43  1  0  0  0  0
 21 44  1  0  0  0  0
 21 22  2  0  0  0  0
 22 45  1  0  0  0  0
 23 30  1  0  0  0  0
 24 25  1  0  0  0  0
 25 46  1  0  0  0  0
M  END
>  <score>
0.43670296669006348

$$$$
PV-004005998289
 OpenBabel08202115463D

 48 50  0  0  0  0  0  0  0  0999 V2000
   -1.8207   -1.6422   -0.2033 O   0  0  0  0  0  0  0  0  0  0  0  0
    3.4372   -0.3972    2.9651 O   0  0  0  0  0  0  0  0  0  0  0  0
   -1.7909   -1.3849   -1.4060 C   0  0  0  0  0  0  0  0  0  0  0  0
   -2.9862   -1.6387   -2.2907 C   0  0  0  0  0  0  0  0  0  0  0  0
   -4.1587   -2.2550   -1.5452 C   0  0  0  0  0  0  0  0  0  0  0  0
   -5.5770   -3.6433   -3.1370 C   0  0  0  0  0  0  0  0  0  0  0  0
   -6.6943   -3.3238   -3.8676 C   0  0  0  0  0  0  0  0  0  0  0  0
    0.4193   -0.4024   -1.2293 C   0  0  0  0  0  0  0  0  0  0  0  0
    0.4340    1.1223   -1.0638 C   0  0  1  0  0  0  0  0  0  0  0  0
   -0.8200    1.5679   -0.2428 C   0  0  0  0  0  0  0  0  0  0  0  0
   -0.7890    1.0026    1.1728 C   0  0  0  0  0  0  0  0  0  0  0  0
    0.5355    1.3621    1.9319 C   0  0  0  0  0  0  0  0  0  0  0  0
    1.7593    0.9698    1.1000 C   0  0  1  0  0  0  0  0  0  0  0  0
    3.7259    0.7513    2.6133 C   0  0  0  0  0  0  0  0  0  0  0  0
    4.9577    1.4126    3.1131 C   0  0  0  0  0  0  0  0  0  0  0  0
    5.9488    0.8490    3.8811 C   0  0  0  0  0  0  0  0  0  0  0  0
    5.4128    2.7041    2.8141 C   0  0  0  0  0  0  0  0  0  0  0  0
    1.7162    1.5441   -0.3231 C   0  0  0  0  0  0  0  0  0  0  0  0
   -5.2964   -2.5367   -2.4224 N   0  0  0  0  0  0  0  0  0  0  0  0
   -7.0345   -2.0362   -3.5650 N   0  0  0  0  0  0  0  0  0  0  0  0
   -6.1865   -1.5589   -2.6900 N   0  0  0  0  0  0  0  0  0  0  0  0
   -0.7130   -0.8675   -2.0163 N   0  0  0  0  0  0  0  0  0  0  0  0
    2.9591    1.4685    1.7693 N   0  0  0  0  0  0  0  0  0  0  0  0
    6.9222    1.7816    4.0111 N   0  0  0  0  0  0  0  0  0  0  0  0
    6.6136    2.9295    3.3552 N   0  0  0  0  0  0  0  0  0  0  0  0
    6.1038   -0.3371    4.4624 F   0  0  0  0  0  0  0  0  0  0  0  0
   -2.6938   -2.3047   -3.0755 H   0  0  0  0  0  0  0  0  0  0  0  0
   -3.3022   -0.7072   -2.7119 H   0  0  0  0  0  0  0  0  0  0  0  0
   -4.4747   -1.5755   -0.7814 H   0  0  0  0  0  0  0  0  0  0  0  0
   -3.8364   -3.1715   -1.0967 H   0  0  0  0  0  0  0  0  0  0  0  0
   -5.0590   -4.5451   -3.1356 H   0  0  0  0  0  0  0  0  0  0  0  0
   -7.1923   -3.9498   -4.5323 H   0  0  0  0  0  0  0  0  0  0  0  0
   -0.6886   -0.8028   -2.9938 H   0  0  0  0  0  0  0  0  0  0  0  0
    1.3227   -0.7030   -1.7175 H   0  0  0  0  0  0  0  0  0  0  0  0
    0.3707   -0.8520   -0.2596 H   0  0  0  0  0  0  0  0  0  0  0  0
    0.4112    1.5865   -2.0276 H   0  0  0  0  0  0  0  0  0  0  0  0
   -1.7019    1.2183   -0.7377 H   0  0  0  0  0  0  0  0  0  0  0  0
   -0.8397    2.6364   -0.1903 H   0  0  0  0  0  0  0  0  0  0  0  0
   -1.6174    1.4014    1.7201 H   0  0  0  0  0  0  0  0  0  0  0  0
   -0.8758   -0.0625    1.1192 H   0  0  0  0  0  0  0  0  0  0  0  0
    0.5605    0.8356    2.8631 H   0  0  0  0  0  0  0  0  0  0  0  0
    0.5595    2.4157    2.1166 H   0  0  0  0  0  0  0  0  0  0  0  0
    1.8028   -0.0974    1.0372 H   0  0  0  0  0  0  0  0  0  0  0  0
    3.2259    2.3945    1.5907 H   0  0  0  0  0  0  0  0  0  0  0  0
    7.7497    1.6442    4.5177 H   0  0  0  0  0  0  0  0  0  0  0  0
    4.8848    3.3964    2.2453 H   0  0  0  0  0  0  0  0  0  0  0  0
    2.5654    1.1873   -0.8677 H   0  0  0  0  0  0  0  0  0  0  0  0
    1.7503    2.6121   -0.2680 H   0  0  0  0  0  0  0  0  0  0  0  0
  3  4  1  0  0  0  0
  3 22  1  0  0  0  0
  3  1  2  0  0  0  0
  4  5  1  0  0  0  0
  4 27  1  0  0  0  0
  4 28  1  0  0  0  0
  5 19  1  0  0  0  0
  5 29  1  0  0  0  0
  5 30  1  0  0  0  0
  6 19  1  0  0  0  0
  6 31  1  0  0  0  0
  6  7  2  0  0  0  0
  7 20  1  0  0  0  0
  7 32  1  0  0  0  0
  8 22  1  0  0  0  0
  8  9  1  0  0  0  0
  8 34  1  0  0  0  0
  8 35  1  0  0  0  0
  9 10  1  0  0  0  0
  9 18  1  0  0  0  0
  9 36  1  6  0  0  0
 10 11  1  0  0  0  0
 10 37  1  0  0  0  0
 10 38  1  0  0  0  0
 11 12  1  0  0  0  0
 11 39  1  0  0  0  0
 11 40  1  0  0  0  0
 12 13  1  0  0  0  0
 12 41  1  0  0  0  0
 12 42  1  0  0  0  0
 13 23  1  0  0  0  0
 13 18  1  0  0  0  0
 13 43  1  6  0  0  0
 14 23  1  0  0  0  0
 14 15  1  0  0  0  0
 14  2  2  0  0  0  0
 15 17  1  0  0  0  0
 15 16  2  0  0  0  0
 16 26  1  0  0  0  0
 16 24  1  0  0  0  0
 17 46  1  0  0  0  0
 17 25  2  0  0  0  0
 18 47  1  0  0  0  0
 18 48  1  0  0  0  0
 19 21  1  0  0  0  0
 20 21  2  0  0  0  0
 22 33  1  0  0  0  0
 23 44  1  0  0  0  0
 24 25  1  0  0  0  0
 24 45  1  0  0  0  0
M  END
>  <score>
0.43671643733978271

$$$$
PV-004084403537
 OpenBabel08202115463D

 51 53  0  0  0  0  0  0  0  0999 V2000
   -7.0440   -3.4871   -3.5460 C   0  0  0  0  0  0  0  0  0  0  0  0
   -5.9604   -2.4448   -3.3231 C   0  0  0  0  0  0  0  0  0  0  0  0
   -5.0638   -2.6942   -2.1589 C   0  0  0  0  0  0  0  0  0  0  0  0
   -3.1941   -3.2074   -0.8621 C   0  0  2  0  0  0  0  0  0  0  0  0
   -2.0871   -2.2503   -0.4510 C   0  0  0  0  0  0  0  0  0  0  0  0
   -2.3148   -0.8081   -0.8118 C   0  0  0  0  0  0  0  0  0  0  0  0
   -1.5115    1.5027   -0.7153 C   0  0  1  0  0  0  0  0  0  0  0  0
   -1.6402    2.6474    0.2398 C   0  0  0  0  0  0  0  0  0  0  0  0
   -0.3437    2.4073   -0.4745 C   0  0  1  0  0  0  0  0  0  0  0  0
    1.7748    1.1754   -0.3277 C   0  0  0  0  0  0  0  0  0  0  0  0
    2.9512    0.8346    0.5071 C   0  0  0  0  0  0  0  0  0  0  0  0
    3.2958    1.2121    1.7831 C   0  0  0  0  0  0  0  0  0  0  0  0
    5.2424    0.7202    3.3013 C   0  0  0  0  0  0  0  0  0  0  0  0
    6.2816    1.8026    3.2435 C   0  0  0  0  0  0  0  0  0  0  0  0
    6.7033    4.1101    3.2438 C   0  0  0  0  0  0  0  0  0  0  0  0
    3.9885   -0.0047    0.0783 C   0  0  0  0  0  0  0  0  0  0  0  0
   -3.5999   -2.9645   -2.3012 C   0  0  0  0  0  0  0  0  0  0  0  0
   -5.4769   -2.6963   -0.9510 N   0  0  0  0  0  0  0  0  0  0  0  0
   -1.4910    0.1068   -0.2927 N   0  0  0  0  0  0  0  0  0  0  0  0
    0.8334    1.9482    0.2477 N   0  0  0  0  0  0  0  0  0  0  0  0
    4.4772    0.6124    2.0638 N   0  0  0  0  0  0  0  0  0  0  0  0
    4.9174   -0.1472    1.0282 N   0  0  0  0  0  0  0  0  0  0  0  0
   -4.3981   -2.9609   -0.0829 O   0  0  0  0  0  0  0  0  0  0  0  0
   -3.2333   -0.4831   -1.5630 O   0  0  0  0  0  0  0  0  0  0  0  0
    1.6823    0.7661   -1.4773 O   0  0  0  0  0  0  0  0  0  0  0  0
    5.7167    3.1033    3.3422 O   0  0  0  0  0  0  0  0  0  0  0  0
   -6.5941   -4.4135   -3.8363 H   0  0  0  0  0  0  0  0  0  0  0  0
   -7.7050   -3.1543   -4.3188 H   0  0  0  0  0  0  0  0  0  0  0  0
   -7.5956   -3.6272   -2.6399 H   0  0  0  0  0  0  0  0  0  0  0  0
   -6.4378   -1.4987   -3.1752 H   0  0  0  0  0  0  0  0  0  0  0  0
   -5.3542   -2.4051   -4.2039 H   0  0  0  0  0  0  0  0  0  0  0  0
   -2.8614   -4.2158   -0.7307 H   0  0  0  0  0  0  0  0  0  0  0  0
   -1.1820   -2.5699   -0.9238 H   0  0  0  0  0  0  0  0  0  0  0  0
   -1.9758   -2.3112    0.6115 H   0  0  0  0  0  0  0  0  0  0  0  0
   -0.8509   -0.1696    0.3959 H   0  0  0  0  0  0  0  0  0  0  0  0
   -1.9973    1.6709   -1.6537 H   0  0  0  0  0  0  0  0  0  0  0  0
   -1.7143    2.4614    1.2909 H   0  0  0  0  0  0  0  0  0  0  0  0
   -2.2437    3.4929   -0.0167 H   0  0  0  0  0  0  0  0  0  0  0  0
   -0.1450    3.0939   -1.2707 H   0  0  0  0  0  0  0  0  0  0  0  0
    0.9451    2.2105    1.1854 H   0  0  0  0  0  0  0  0  0  0  0  0
    2.7535    1.8380    2.4122 H   0  0  0  0  0  0  0  0  0  0  0  0
    5.7304   -0.2142    3.4852 H   0  0  0  0  0  0  0  0  0  0  0  0
    4.5681    0.9349    4.1039 H   0  0  0  0  0  0  0  0  0  0  0  0
    6.8060    1.7257    2.3140 H   0  0  0  0  0  0  0  0  0  0  0  0
    6.9674    1.6637    4.0530 H   0  0  0  0  0  0  0  0  0  0  0  0
    6.2445    5.0711    3.3481 H   0  0  0  0  0  0  0  0  0  0  0  0
    7.1838    4.0462    2.2899 H   0  0  0  0  0  0  0  0  0  0  0  0
    7.4286    3.9754    4.0188 H   0  0  0  0  0  0  0  0  0  0  0  0
    4.0297   -0.4575   -0.8571 H   0  0  0  0  0  0  0  0  0  0  0  0
   -3.4194   -3.8267   -2.9086 H   0  0  0  0  0  0  0  0  0  0  0  0
   -3.0859   -2.1221   -2.7149 H   0  0  0  0  0  0  0  0  0  0  0  0
  1  2  1  0  0  0  0
  1 27  1  0  0  0  0
  1 28  1  0  0  0  0
  1 29  1  0  0  0  0
  2  3  1  0  0  0  0
  2 30  1  0  0  0  0
  2 31  1  0  0  0  0
  3 17  1  0  0  0  0
  3 18  2  0  0  0  0
  4 23  1  0  0  0  0
  4  5  1  0  0  0  0
  4 17  1  0  0  0  0
  4 32  1  1  0  0  0
  5  6  1  0  0  0  0
  5 33  1  0  0  0  0
  5 34  1  0  0  0  0
  6 19  1  0  0  0  0
  6 24  2  0  0  0  0
  7 19  1  0  0  0  0
  7  8  1  0  0  0  0
  7  9  1  0  0  0  0
  7 36  1  6  0  0  0
  8  9  1  0  0  0  0
  8 37  1  0  0  0  0
  8 38  1  0  0  0  0
  9 20  1  0  0  0  0
  9 39  1  6  0  0  0
 10 20  1  0  0  0  0
 10 11  1  0  0  0  0
 10 25  2  0  0  0  0
 11 16  1  0  0  0  0
 11 12  2  0  0  0  0
 12 21  1  0  0  0  0
 12 41  1  0  0  0  0
 13 21  1  0  0  0  0
 13 14  1  0  0  0  0
 13 42  1  0  0  0  0
 13 43  1  0  0  0  0
 14 26  1  0  0  0  0
 14 44  1  0  0  0  0
 14 45  1  0  0  0  0
 15 26  1  0  0  0  0
 15 46  1  0  0  0  0
 15 47  1  0  0  0  0
 15 48  1  0  0  0  0
 16 49  1  0  0  0  0
 16 22  2  0  0  0  0
 17 50  1  0  0  0  0
 17 51  1  0  0  0  0
 18 23  1  0  0  0  0
 19 35  1  0  0  0  0
 20 40  1  0  0  0  0
 21 22  1  0  0  0  0
M  END
>  <score>
0.43701130151748657

$$$$
PV-003764175589
 OpenBabel08202115463D

 53 55  0  0  0  0  0  0  0  0999 V2000
    5.5715   -0.5724    2.8700 C   0  0  0  0  0  0  0  0  0  0  0  0
    4.6454    1.5862    2.4252 C   0  0  0  0  0  0  0  0  0  0  0  0
    3.7681    2.3447    1.4379 C   0  0  0  0  0  0  0  0  0  0  0  0
    2.3920    1.7515    1.2954 C   0  0  0  0  0  0  0  0  0  0  0  0
    0.2788    1.5667    0.0314 C   0  0  1  0  0  0  0  0  0  0  0  0
   -0.7526    2.6094   -0.3686 C   0  0  0  0  0  0  0  0  0  0  0  0
    0.3877    0.4369   -0.9801 C   0  0  0  0  0  0  0  0  0  0  0  0
   -1.5781   -1.0077   -0.6434 C   0  0  0  0  0  0  0  0  0  0  0  0
   -2.8097   -1.5758   -1.2451 C   0  0  0  0  0  0  0  0  0  0  0  0
   -4.9408   -1.9311   -4.0180 C   0  0  0  0  0  0  0  0  0  0  0  0
   -6.4272   -1.8459   -4.1680 C   0  0  0  0  0  0  0  0  0  0  0  0
   -5.7156   -3.1338   -4.4574 C   0  0  0  0  0  0  0  0  0  0  0  0
   -4.6754   -2.6949   -1.6108 C   0  0  0  0  0  0  0  0  0  0  0  0
   -5.9590   -3.4510   -1.5857 C   0  0  0  0  0  0  0  0  0  0  0  0
   -3.7154   -2.4670   -0.6537 C   0  0  0  0  0  0  0  0  0  0  0  0
    4.2520    1.7721    3.9228 C   0  0  0  0  0  0  0  0  0  0  0  0
    5.7288    2.0443    4.2861 C   0  0  0  0  0  0  0  0  0  0  0  0
    5.9867    2.2841    2.7688 C   0  0  0  0  0  0  0  0  0  0  0  0
    4.7707    0.2238    2.0043 O   0  0  0  0  0  0  0  0  0  0  0  0
    1.9721    0.8913    2.0479 O   0  0  0  0  0  0  0  0  0  0  0  0
   -1.1985   -1.3667    0.4591 O   0  0  0  0  0  0  0  0  0  0  0  0
    1.5988    2.1806    0.3096 N   0  0  0  0  0  0  0  0  0  0  0  0
   -0.9195   -0.0896   -1.3767 N   0  0  0  0  0  0  0  0  0  0  0  0
   -3.1840   -1.2626   -2.4891 N   0  0  0  0  0  0  0  0  0  0  0  0
   -4.3275   -1.9644   -2.6968 N   0  0  0  0  0  0  0  0  0  0  0  0
    5.5299   -1.5944    2.5557 H   0  0  0  0  0  0  0  0  0  0  0  0
    5.2024   -0.4921    3.8712 H   0  0  0  0  0  0  0  0  0  0  0  0
    6.5844   -0.2295    2.8342 H   0  0  0  0  0  0  0  0  0  0  0  0
    4.2448    2.3332    0.4801 H   0  0  0  0  0  0  0  0  0  0  0  0
    3.6700    3.3552    1.7760 H   0  0  0  0  0  0  0  0  0  0  0  0
    1.9003    2.9273   -0.2489 H   0  0  0  0  0  0  0  0  0  0  0  0
   -0.0646    1.1291    0.9455 H   0  0  0  0  0  0  0  0  0  0  0  0
   -1.6863    2.1282   -0.5728 H   0  0  0  0  0  0  0  0  0  0  0  0
   -0.4177    3.1240   -1.2449 H   0  0  0  0  0  0  0  0  0  0  0  0
   -0.8798    3.3097    0.4303 H   0  0  0  0  0  0  0  0  0  0  0  0
    0.9600   -0.3568   -0.5473 H   0  0  0  0  0  0  0  0  0  0  0  0
    0.8882    0.8041   -1.8516 H   0  0  0  0  0  0  0  0  0  0  0  0
   -1.3297    0.2374   -2.2045 H   0  0  0  0  0  0  0  0  0  0  0  0
   -4.3753   -1.4461   -4.7861 H   0  0  0  0  0  0  0  0  0  0  0  0
   -6.8524   -1.2780   -4.9689 H   0  0  0  0  0  0  0  0  0  0  0  0
   -7.0484   -1.7611   -3.3009 H   0  0  0  0  0  0  0  0  0  0  0  0
   -5.8289   -3.9679   -3.7968 H   0  0  0  0  0  0  0  0  0  0  0  0
   -5.6330   -3.4848   -5.4648 H   0  0  0  0  0  0  0  0  0  0  0  0
   -6.2321   -3.6576   -0.5720 H   0  0  0  0  0  0  0  0  0  0  0  0
   -5.8407   -4.3719   -2.1176 H   0  0  0  0  0  0  0  0  0  0  0  0
   -6.7261   -2.8667   -2.0495 H   0  0  0  0  0  0  0  0  0  0  0  0
   -3.6708   -2.8696    0.3041 H   0  0  0  0  0  0  0  0  0  0  0  0
    3.8463    0.8932    4.3788 H   0  0  0  0  0  0  0  0  0  0  0  0
    3.5996    2.6010    4.1020 H   0  0  0  0  0  0  0  0  0  0  0  0
    5.8848    2.9022    4.9062 H   0  0  0  0  0  0  0  0  0  0  0  0
    6.2483    1.2053    4.6998 H   0  0  0  0  0  0  0  0  0  0  0  0
    6.0246    3.3166    2.4909 H   0  0  0  0  0  0  0  0  0  0  0  0
    6.8504    1.7799    2.3884 H   0  0  0  0  0  0  0  0  0  0  0  0
  1 19  1  0  0  0  0
  1 26  1  0  0  0  0
  1 27  1  0  0  0  0
  1 28  1  0  0  0  0
  2 19  1  0  0  0  0
  2  3  1  0  0  0  0
  2 16  1  0  0  0  0
  2 18  1  0  0  0  0
  3  4  1  0  0  0  0
  3 29  1  0  0  0  0
  3 30  1  0  0  0  0
  4 22  1  0  0  0  0
  4 20  2  0  0  0  0
  5 22  1  0  0  0  0
  5  6  1  0  0  0  0
  5  7  1  0  0  0  0
  5 32  1  1  0  0  0
  6 33  1  0  0  0  0
  6 34  1  0  0  0  0
  6 35  1  0  0  0  0
  7 23  1  0  0  0  0
  7 36  1  0  0  0  0
  7 37  1  0  0  0  0
  8 23  1  0  0  0  0
  8  9  1  0  0  0  0
  8 21  2  0  0  0  0
  9 15  1  0  0  0  0
  9 24  2  0  0  0  0
 10 25  1  0  0  0  0
 10 11  1  0  0  0  0
 10 12  1  0  0  0  0
 10 39  1  0  0  0  0
 11 12  1  0  0  0  0
 11 40  1  0  0  0  0
 11 41  1  0  0  0  0
 12 42  1  0  0  0  0
 12 43  1  0  0  0  0
 13 25  1  0  0  0  0
 13 14  1  0  0  0  0
 13 15  2  0  0  0  0
 14 44  1  0  0  0  0
 14 45  1  0  0  0  0
 14 46  1  0  0  0  0
 15 47  1  0  0  0  0
 16 17  1  0  0  0  0
 16 48  1  0  0  0  0
 16 49  1  0  0  0  0
 17 18  1  0  0  0  0
 17 50  1  0  0  0  0
 17 51  1  0  0  0  0
 18 52  1  0  0  0  0
 18 53  1  0  0  0  0
 22 31  1  0  0  0  0
 23 38  1  0  0  0  0
 24 25  1  0  0  0  0
M  END
>  <score>
0.43706291913986206

$$$$
PV-003816018443
 OpenBabel08202115463D

 44 44  0  0  0  0  0  0  0  0999 V2000
   -0.8648    2.0366   -0.3868 C   0  0  0  0  0  0  0  0  0  0  0  0
    0.8412    1.0096    1.1214 C   0  0  0  0  0  0  0  0  0  0  0  0
    2.1661    1.1004    0.4055 C   0  0  0  0  0  0  0  0  0  0  0  0
    3.9980   -0.1271    1.5703 C   0  0  0  0  0  0  0  0  0  0  0  0
    3.6771    2.2789    1.9221 C   0  0  0  0  0  0  0  0  0  0  0  0
    4.9990    2.2776    2.5877 C   0  0  0  0  0  0  0  0  0  0  0  0
    6.1324    1.6710    2.1288 C   0  0  0  0  0  0  0  0  0  0  0  0
    5.2372    2.9353    3.8266 C   0  0  0  0  0  0  0  0  0  0  0  0
   -0.8506   -0.3728   -0.0482 C   0  0  0  0  0  0  0  0  0  0  0  0
   -2.1123   -0.2864   -0.8826 C   0  0  0  0  0  0  0  0  0  0  0  0
   -2.7397   -1.6467   -1.1582 C   0  0  0  0  0  0  0  0  0  0  0  0
   -3.9831   -1.5716   -2.0309 C   0  0  0  0  0  0  0  0  0  0  0  0
   -4.5640   -2.9553   -2.3880 C   0  0  0  0  0  0  0  0  0  0  0  0
   -5.6925   -2.9487   -3.3792 C   0  0  0  0  0  0  0  0  0  0  0  0
   -0.2833    0.8236    0.2009 N   0  0  0  0  0  0  0  0  0  0  0  0
    3.3022    1.1293    1.3283 N   0  0  0  0  0  0  0  0  0  0  0  0
    6.4723    2.8205    4.2862 N   0  0  0  0  0  0  0  0  0  0  0  0
    2.9730    3.2869    1.9223 O   0  0  0  0  0  0  0  0  0  0  0  0
   -0.4132   -1.4499    0.3478 O   0  0  0  0  0  0  0  0  0  0  0  0
   -6.2440   -4.2585   -3.4067 O   0  0  0  0  0  0  0  0  0  0  0  0
    7.3903    1.9388    3.2538 S   0  0  0  0  0  0  0  0  0  0  0  0
   -4.9883   -3.5184   -1.2477 F   0  0  0  0  0  0  0  0  0  0  0  0
   -3.5602   -3.7005   -2.8720 F   0  0  0  0  0  0  0  0  0  0  0  0
   -0.4718    2.1801   -1.3717 H   0  0  0  0  0  0  0  0  0  0  0  0
   -0.6181    2.8812    0.2220 H   0  0  0  0  0  0  0  0  0  0  0  0
   -1.9285    1.9325   -0.4392 H   0  0  0  0  0  0  0  0  0  0  0  0
    0.8725    0.1801    1.7965 H   0  0  0  0  0  0  0  0  0  0  0  0
    0.6869    1.9135    1.6729 H   0  0  0  0  0  0  0  0  0  0  0  0
    2.1781    1.9951   -0.1812 H   0  0  0  0  0  0  0  0  0  0  0  0
    2.2676    0.2506   -0.2368 H   0  0  0  0  0  0  0  0  0  0  0  0
    4.6392   -0.0224    2.4204 H   0  0  0  0  0  0  0  0  0  0  0  0
    4.5835   -0.3814    0.7115 H   0  0  0  0  0  0  0  0  0  0  0  0
    3.2826   -0.9006    1.7567 H   0  0  0  0  0  0  0  0  0  0  0  0
    6.2165    1.1348    1.2416 H   0  0  0  0  0  0  0  0  0  0  0  0
    4.4981    3.4650    4.3312 H   0  0  0  0  0  0  0  0  0  0  0  0
   -1.8710    0.1731   -1.8183 H   0  0  0  0  0  0  0  0  0  0  0  0
   -2.8248    0.3179   -0.3611 H   0  0  0  0  0  0  0  0  0  0  0  0
   -3.0079   -2.0922   -0.2229 H   0  0  0  0  0  0  0  0  0  0  0  0
   -2.0155   -2.2606   -1.6516 H   0  0  0  0  0  0  0  0  0  0  0  0
   -3.7302   -1.0651   -2.9389 H   0  0  0  0  0  0  0  0  0  0  0  0
   -4.7317   -1.0142   -1.5076 H   0  0  0  0  0  0  0  0  0  0  0  0
   -5.3250   -2.6865   -4.3493 H   0  0  0  0  0  0  0  0  0  0  0  0
   -6.4393   -2.2442   -3.0777 H   0  0  0  0  0  0  0  0  0  0  0  0
   -7.1527   -4.2302   -3.0983 H   0  0  0  0  0  0  0  0  0  0  0  0
  1 15  1  0  0  0  0
  1 24  1  0  0  0  0
  1 25  1  0  0  0  0
  1 26  1  0  0  0  0
  2 15  1  0  0  0  0
  2  3  1  0  0  0  0
  2 27  1  0  0  0  0
  2 28  1  0  0  0  0
  3 16  1  0  0  0  0
  3 29  1  0  0  0  0
  3 30  1  0  0  0  0
  4 16  1  0  0  0  0
  4 31  1  0  0  0  0
  4 32  1  0  0  0  0
  4 33  1  0  0  0  0
  5 16  1  0  0  0  0
  5  6  1  0  0  0  0
  5 18  2  0  0  0  0
  6  8  1  0  0  0  0
  6  7  2  0  0  0  0
  7 21  1  0  0  0  0
  7 34  1  0  0  0  0
  8 35  1  0  0  0  0
  8 17  2  0  0  0  0
  9 15  1  0  0  0  0
  9 10  1  0  0  0  0
  9 19  2  0  0  0  0
 10 11  1  0  0  0  0
 10 36  1  0  0  0  0
 10 37  1  0  0  0  0
 11 12  1  0  0  0  0
 11 38  1  0  0  0  0
 11 39  1  0  0  0  0
 12 13  1  0  0  0  0
 12 40  1  0  0  0  0
 12 41  1  0  0  0  0
 13 22  1  0  0  0  0
 13 23  1  0  0  0  0
 13 14  1  0  0  0  0
 14 20  1  0  0  0  0
 14 42  1  0  0  0  0
 14 43  1  0  0  0  0
 17 21  1  0  0  0  0
 20 44  1  0  0  0  0
M  END
>  <score>
0.43709826469421387

$$$$
PV-003312284686
 OpenBabel08202115463D

 51 51  0  0  0  0  0  0  0  0999 V2000
    6.3953   -0.3538    3.5282 C   0  0  0  0  0  0  0  0  0  0  0  0
    5.1203    0.3674    3.1223 C   0  0  1  0  0  0  0  0  0  0  0  0
    5.4293    1.7592    2.6201 C   0  0  0  0  0  0  0  0  0  0  0  0
    4.2875    2.0466    1.6360 C   0  0  0  0  0  0  0  0  0  0  0  0
    3.9310    0.6462    1.1126 C   0  0  2  0  0  0  0  0  0  0  0  0
    2.4244    0.4792    1.0745 C   0  0  0  0  0  0  0  0  0  0  0  0
    0.3086    1.1098   -0.0569 C   0  0  2  0  0  0  0  0  0  0  0  0
   -0.4125    1.4240    1.2438 C   0  0  0  0  0  0  0  0  0  0  0  0
   -0.0800    2.1143   -1.1066 C   0  0  0  0  0  0  0  0  0  0  0  0
   -0.0525   -0.2880   -0.5327 C   0  0  0  0  0  0  0  0  0  0  0  0
   -2.0368   -1.6378   -1.0408 C   0  0  0  0  0  0  0  0  0  0  0  0
   -3.5629   -1.6747   -1.0018 C   0  0  0  0  0  0  0  0  0  0  0  0
   -4.1890   -2.3158   -2.2161 C   0  0  0  0  0  0  0  0  0  0  0  0
   -6.1520   -0.9142   -2.4154 C   0  0  0  0  0  0  0  0  0  0  0  0
   -6.1698   -3.1517   -3.2378 C   0  0  0  0  0  0  0  0  0  0  0  0
    1.8469   -0.2759    1.8521 O   0  0  0  0  0  0  0  0  0  0  0  0
    0.2173    3.4488   -0.7174 O   0  0  0  0  0  0  0  0  0  0  0  0
   -1.3835   -2.6575   -1.2577 O   0  0  0  0  0  0  0  0  0  0  0  0
    4.4915   -0.2955    1.9834 O   0  0  0  0  0  0  0  0  0  0  0  0
    1.7806    1.2038    0.1457 N   0  0  0  0  0  0  0  0  0  0  0  0
   -1.4913   -0.4545   -0.7455 N   0  0  0  0  0  0  0  0  0  0  0  0
   -5.6523   -2.2722   -2.1806 N   0  0  0  0  0  0  0  0  0  0  0  0
   -3.9828   -0.3817   -0.8794 F   0  0  0  0  0  0  0  0  0  0  0  0
   -3.9769   -2.2940    0.1419 F   0  0  0  0  0  0  0  0  0  0  0  0
    6.9341   -0.6474    2.6516 H   0  0  0  0  0  0  0  0  0  0  0  0
    6.1464   -1.2225    4.1012 H   0  0  0  0  0  0  0  0  0  0  0  0
    7.0029    0.3008    4.1175 H   0  0  0  0  0  0  0  0  0  0  0  0
    4.4505    0.4053    3.9558 H   0  0  0  0  0  0  0  0  0  0  0  0
    6.3771    1.7850    2.1242 H   0  0  0  0  0  0  0  0  0  0  0  0
    5.4276    2.4649    3.4244 H   0  0  0  0  0  0  0  0  0  0  0  0
    4.6148    2.6836    0.8410 H   0  0  0  0  0  0  0  0  0  0  0  0
    3.4536    2.4961    2.1335 H   0  0  0  0  0  0  0  0  0  0  0  0
    4.3300    0.5138    0.1287 H   0  0  0  0  0  0  0  0  0  0  0  0
    2.2976    1.8160   -0.4186 H   0  0  0  0  0  0  0  0  0  0  0  0
   -0.0671    2.3618    1.6261 H   0  0  0  0  0  0  0  0  0  0  0  0
   -0.2121    0.6525    1.9577 H   0  0  0  0  0  0  0  0  0  0  0  0
   -1.4657    1.4788    1.0632 H   0  0  0  0  0  0  0  0  0  0  0  0
   -1.1320    2.0350   -1.2850 H   0  0  0  0  0  0  0  0  0  0  0  0
    0.4528    1.8928   -2.0077 H   0  0  0  0  0  0  0  0  0  0  0  0
    1.0864    3.4779   -0.3107 H   0  0  0  0  0  0  0  0  0  0  0  0
    0.2693   -0.9945    0.2036 H   0  0  0  0  0  0  0  0  0  0  0  0
    0.4548   -0.4777   -1.4555 H   0  0  0  0  0  0  0  0  0  0  0  0
   -2.0746    0.3292   -0.6686 H   0  0  0  0  0  0  0  0  0  0  0  0
   -3.8772   -3.3383   -2.2636 H   0  0  0  0  0  0  0  0  0  0  0  0
   -3.8514   -1.7985   -3.0898 H   0  0  0  0  0  0  0  0  0  0  0  0
   -5.7786   -0.2599   -1.6555 H   0  0  0  0  0  0  0  0  0  0  0  0
   -7.2217   -0.9183   -2.3881 H   0  0  0  0  0  0  0  0  0  0  0  0
   -5.8205   -0.5732   -3.3739 H   0  0  0  0  0  0  0  0  0  0  0  0
   -5.7560   -2.8592   -4.1801 H   0  0  0  0  0  0  0  0  0  0  0  0
   -7.2362   -3.0727   -3.2768 H   0  0  0  0  0  0  0  0  0  0  0  0
   -5.8942   -4.1637   -3.0261 H   0  0  0  0  0  0  0  0  0  0  0  0
  1  2  1  0  0  0  0
  1 25  1  0  0  0  0
  1 26  1  0  0  0  0
  1 27  1  0  0  0  0
  2  3  1  0  0  0  0
  2 19  1  0  0  0  0
  2 28  1  1  0  0  0
  3  4  1  0  0  0  0
  3 29  1  0  0  0  0
  3 30  1  0  0  0  0
  4  5  1  0  0  0  0
  4 31  1  0  0  0  0
  4 32  1  0  0  0  0
  5  6  1  0  0  0  0
  5 19  1  0  0  0  0
  5 33  1  6  0  0  0
  6 20  1  0  0  0  0
  6 16  2  0  0  0  0
  7 20  1  1  0  0  0
  7  8  1  0  0  0  0
  7  9  1  0  0  0  0
  7 10  1  0  0  0  0
  8 35  1  0  0  0  0
  8 36  1  0  0  0  0
  8 37  1  0  0  0  0
  9 17  1  0  0  0  0
  9 38  1  0  0  0  0
  9 39  1  0  0  0  0
 10 21  1  0  0  0  0
 10 41  1  0  0  0  0
 10 42  1  0  0  0  0
 11 21  1  0  0  0  0
 11 12  1  0  0  0  0
 11 18  2  0  0  0  0
 12 23  1  0  0  0  0
 12 24  1  0  0  0  0
 12 13  1  0  0  0  0
 13 22  1  0  0  0  0
 13 44  1  0  0  0  0
 13 45  1  0  0  0  0
 14 22  1  0  0  0  0
 14 46  1  0  0  0  0
 14 47  1  0  0  0  0
 14 48  1  0  0  0  0
 15 22  1  0  0  0  0
 15 49  1  0  0  0  0
 15 50  1  0  0  0  0
 15 51  1  0  0  0  0
 17 40  1  0  0  0  0
 20 34  1  0  0  0  0
 21 43  1  0  0  0  0
M  END
>  <score>
0.43712931871414185

$$$$
Z2474221906
 OpenBabel08202115463D

 59 60  0  0  0  0  0  0  0  0999 V2000
    1.7396    1.5338    2.3290 C   0  0  0  0  0  0  0  0  0  0  0  0
    2.7323    1.0578    1.2582 C   0  0  0  0  0  0  0  0  0  0  0  0
    3.0053    2.1904    0.2613 C   0  0  0  0  0  0  0  0  0  0  0  0
    2.1502   -0.1300    0.5267 C   0  0  0  0  0  0  0  0  0  0  0  0
    0.0957   -0.7165   -0.7582 C   0  0  0  0  0  0  0  0  0  0  0  0
   -1.2781   -0.2943   -1.1118 C   0  0  0  0  0  0  0  0  0  0  0  0
   -1.7311    0.9948   -0.9101 C   0  0  0  0  0  0  0  0  0  0  0  0
   -3.0309    1.3071   -1.2684 C   0  0  0  0  0  0  0  0  0  0  0  0
   -3.4243   -0.8260   -1.9894 C   0  0  0  0  0  0  0  0  0  0  0  0
   -4.4353   -1.7255   -2.5803 C   0  0  0  0  0  0  0  0  0  0  0  0
   -6.6634   -1.9946   -3.4863 C   0  0  0  0  0  0  0  0  0  0  0  0
   -7.9267   -1.1808   -3.7147 C   0  0  0  0  0  0  0  0  0  0  0  0
   -6.9192   -3.2686   -2.6977 C   0  0  0  0  0  0  0  0  0  0  0  0
   -5.9721   -2.3006   -4.7996 C   0  0  0  0  0  0  0  0  0  0  0  0
   -2.1411   -1.2226   -1.6642 C   0  0  0  0  0  0  0  0  0  0  0  0
    4.0323    0.6463    1.9222 C   0  0  0  0  0  0  0  0  0  0  0  0
    4.7420    1.7942    2.6197 C   0  0  0  0  0  0  0  0  0  0  0  0
    4.4821    1.7122    4.1278 C   0  0  0  0  0  0  0  0  0  0  0  0
    5.1756    0.5064    4.7195 C   0  0  0  0  0  0  0  0  0  0  0  0
    6.8435    0.4991    3.0640 C   0  0  0  0  0  0  0  0  0  0  0  0
    6.2490    1.7018    2.3482 C   0  0  0  0  0  0  0  0  0  0  0  0
    0.8073    0.1339    0.0067 N   0  0  0  0  0  0  0  0  0  0  0  0
   -3.8796    0.4163   -1.8007 N   0  0  0  0  0  0  0  0  0  0  0  0
    0.5474   -1.7961   -1.1539 O   0  0  0  0  0  0  0  0  0  0  0  0
   -4.2022   -2.8737   -2.8571 O   0  0  0  0  0  0  0  0  0  0  0  0
   -5.6510   -1.1676   -2.7914 O   0  0  0  0  0  0  0  0  0  0  0  0
    6.5758    0.5417    4.4654 O   0  0  0  0  0  0  0  0  0  0  0  0
    1.7177    0.8294    3.1341 H   0  0  0  0  0  0  0  0  0  0  0  0
    0.7630    1.6143    1.8991 H   0  0  0  0  0  0  0  0  0  0  0  0
    2.0464    2.4895    2.6998 H   0  0  0  0  0  0  0  0  0  0  0  0
    2.0797    2.6429   -0.0275 H   0  0  0  0  0  0  0  0  0  0  0  0
    3.4934    1.7935   -0.6043 H   0  0  0  0  0  0  0  0  0  0  0  0
    3.6334    2.9253    0.7199 H   0  0  0  0  0  0  0  0  0  0  0  0
    2.0995   -0.9578    1.2027 H   0  0  0  0  0  0  0  0  0  0  0  0
    2.7927   -0.3767   -0.2926 H   0  0  0  0  0  0  0  0  0  0  0  0
    0.3951    0.9939    0.2321 H   0  0  0  0  0  0  0  0  0  0  0  0
   -1.1072    1.7171   -0.4970 H   0  0  0  0  0  0  0  0  0  0  0  0
   -3.3655    2.2801   -1.1173 H   0  0  0  0  0  0  0  0  0  0  0  0
   -7.6703   -0.2382   -4.1514 H   0  0  0  0  0  0  0  0  0  0  0  0
   -8.4197   -1.0179   -2.7792 H   0  0  0  0  0  0  0  0  0  0  0  0
   -8.5793   -1.7135   -4.3745 H   0  0  0  0  0  0  0  0  0  0  0  0
   -6.0254   -3.8561   -2.6684 H   0  0  0  0  0  0  0  0  0  0  0  0
   -7.6990   -3.8292   -3.1694 H   0  0  0  0  0  0  0  0  0  0  0  0
   -7.2133   -3.0172   -1.7001 H   0  0  0  0  0  0  0  0  0  0  0  0
   -5.0602   -1.7444   -4.8613 H   0  0  0  0  0  0  0  0  0  0  0  0
   -6.6125   -2.0265   -5.6118 H   0  0  0  0  0  0  0  0  0  0  0  0
   -5.7556   -3.3471   -4.8530 H   0  0  0  0  0  0  0  0  0  0  0  0
   -1.8305   -2.2009   -1.8317 H   0  0  0  0  0  0  0  0  0  0  0  0
    4.6849    0.2490    1.1731 H   0  0  0  0  0  0  0  0  0  0  0  0
    3.8180   -0.1108    2.6473 H   0  0  0  0  0  0  0  0  0  0  0  0
    4.3697    2.7247    2.2450 H   0  0  0  0  0  0  0  0  0  0  0  0
    4.8545    2.5983    4.5979 H   0  0  0  0  0  0  0  0  0  0  0  0
    3.4291    1.6322    4.2998 H   0  0  0  0  0  0  0  0  0  0  0  0
    4.7644   -0.3807    4.2849 H   0  0  0  0  0  0  0  0  0  0  0  0
    5.0131    0.4946    5.7770 H   0  0  0  0  0  0  0  0  0  0  0  0
    7.9026    0.4923    2.9121 H   0  0  0  0  0  0  0  0  0  0  0  0
    6.4184   -0.3939    2.6556 H   0  0  0  0  0  0  0  0  0  0  0  0
    6.7259    2.5927    2.7003 H   0  0  0  0  0  0  0  0  0  0  0  0
    6.4121    1.6016    1.2955 H   0  0  0  0  0  0  0  0  0  0  0  0
  1  2  1  0  0  0  0
  1 28  1  0  0  0  0
  1 29  1  0  0  0  0
  1 30  1  0  0  0  0
  2  3  1  0  0  0  0
  2  4  1  0  0  0  0
  2 16  1  0  0  0  0
  3 31  1  0  0  0  0
  3 32  1  0  0  0  0
  3 33  1  0  0  0  0
  4 22  1  0  0  0  0
  4 34  1  0  0  0  0
  4 35  1  0  0  0  0
  5 22  1  0  0  0  0
  5  6  1  0  0  0  0
  5 24  2  0  0  0  0
  6 15  1  0  0  0  0
  6  7  2  0  0  0  0
  7  8  1  0  0  0  0
  7 37  1  0  0  0  0
  8 38  1  0  0  0  0
  8 23  2  0  0  0  0
  9 23  1  0  0  0  0
  9 10  1  0  0  0  0
  9 15  2  0  0  0  0
 10 26  1  0  0  0  0
 10 25  2  0  0  0  0
 11 26  1  0  0  0  0
 11 12  1  0  0  0  0
 11 13  1  0  0  0  0
 11 14  1  0  0  0  0
 12 39  1  0  0  0  0
 12 40  1  0  0  0  0
 12 41  1  0  0  0  0
 13 42  1  0  0  0  0
 13 43  1  0  0  0  0
 13 44  1  0  0  0  0
 14 45  1  0  0  0  0
 14 46  1  0  0  0  0
 14 47  1  0  0  0  0
 15 48  1  0  0  0  0
 16 17  1  0  0  0  0
 16 49  1  0  0  0  0
 16 50  1  0  0  0  0
 17 18  1  0  0  0  0
 17 21  1  0  0  0  0
 17 51  1  0  0  0  0
 18 19  1  0  0  0  0
 18 52  1  0  0  0  0
 18 53  1  0  0  0  0
 19 27  1  0  0  0  0
 19 54  1  0  0  0  0
 19 55  1  0  0  0  0
 20 27  1  0  0  0  0
 20 21  1  0  0  0  0
 20 56  1  0  0  0  0
 20 57  1  0  0  0  0
 21 58  1  0  0  0  0
 21 59  1  0  0  0  0
 22 36  1  0  0  0  0
M  END
>  <score>
0.43727296590805054

$$$$
PV-003037712332
 OpenBabel08202115463D

 46 48  0  0  0  0  0  0  0  0999 V2000
    1.3856    2.5913    1.2568 C   0  0  0  0  0  0  0  0  0  0  0  0
    0.6772    0.3118    0.9052 C   0  0  0  0  0  0  0  0  0  0  0  0
   -0.4736    0.9578    0.1585 C   0  0  0  0  0  0  0  0  0  0  0  0
   -2.4160    0.4382   -1.2534 C   0  0  0  0  0  0  0  0  0  0  0  0
   -3.2036   -0.6153   -1.9318 C   0  0  0  0  0  0  0  0  0  0  0  0
   -2.7880   -1.9330   -1.9829 C   0  0  0  0  0  0  0  0  0  0  0  0
   -3.5847   -2.8551   -2.6331 C   0  0  0  0  0  0  0  0  0  0  0  0
   -4.7675   -2.4243   -3.2083 C   0  0  0  0  0  0  0  0  0  0  0  0
   -5.6926   -3.3023   -3.9164 C   0  0  0  0  0  0  0  0  0  0  0  0
   -4.3976   -0.2710   -2.5363 C   0  0  0  0  0  0  0  0  0  0  0  0
    2.9110    0.7400    1.9305 C   0  0  0  0  0  0  0  0  0  0  0  0
    3.0052    1.3611    3.3624 C   0  0  0  0  0  0  0  0  0  0  0  0
    4.3653    1.0095    3.9924 C   0  0  0  0  0  0  0  0  0  0  0  0
    5.5320    1.4795    3.1122 C   0  0  0  0  0  0  0  0  0  0  0  0
    5.4647    0.9135    1.6914 C   0  0  0  0  0  0  0  0  0  0  0  0
    4.0644    1.2006    1.0462 C   0  0  0  0  0  0  0  0  0  0  0  0
    1.6514    1.1489    1.3181 N   0  0  0  0  0  0  0  0  0  0  0  0
   -1.3307    0.0295   -0.5681 N   0  0  0  0  0  0  0  0  0  0  0  0
   -5.5550   -4.6014   -4.1356 N   0  0  0  0  0  0  0  0  0  0  0  0
   -6.6623   -4.9748   -4.8305 N   0  0  0  0  0  0  0  0  0  0  0  0
   -7.4450   -3.9632   -5.0352 N   0  0  0  0  0  0  0  0  0  0  0  0
   -6.8472   -2.8940   -4.4587 N   0  0  0  0  0  0  0  0  0  0  0  0
   -5.1805   -1.1494   -3.1702 N   0  0  0  0  0  0  0  0  0  0  0  0
    0.7037   -0.8986    1.1116 O   0  0  0  0  0  0  0  0  0  0  0  0
   -2.7531    1.6246   -1.3242 O   0  0  0  0  0  0  0  0  0  0  0  0
    0.8212    2.8133    0.3752 H   0  0  0  0  0  0  0  0  0  0  0  0
    2.3132    3.1239    1.2295 H   0  0  0  0  0  0  0  0  0  0  0  0
    0.8285    2.8882    2.1208 H   0  0  0  0  0  0  0  0  0  0  0  0
   -0.0650    1.6530   -0.5449 H   0  0  0  0  0  0  0  0  0  0  0  0
   -1.0782    1.4820    0.8688 H   0  0  0  0  0  0  0  0  0  0  0  0
   -1.1098   -0.9252   -0.5577 H   0  0  0  0  0  0  0  0  0  0  0  0
   -1.8930   -2.2241   -1.5404 H   0  0  0  0  0  0  0  0  0  0  0  0
   -3.3012   -3.8541   -2.6893 H   0  0  0  0  0  0  0  0  0  0  0  0
   -7.1986   -1.9793   -4.4413 H   0  0  0  0  0  0  0  0  0  0  0  0
   -4.7026    0.7224   -2.4960 H   0  0  0  0  0  0  0  0  0  0  0  0
    2.9391   -0.3265    2.0114 H   0  0  0  0  0  0  0  0  0  0  0  0
    2.9087    2.4247    3.2957 H   0  0  0  0  0  0  0  0  0  0  0  0
    2.2187    0.9687    3.9726 H   0  0  0  0  0  0  0  0  0  0  0  0
    4.4277   -0.0517    4.1144 H   0  0  0  0  0  0  0  0  0  0  0  0
    4.4384    1.4839    4.9487 H   0  0  0  0  0  0  0  0  0  0  0  0
    5.5100    2.5479    3.0565 H   0  0  0  0  0  0  0  0  0  0  0  0
    6.4497    1.1643    3.5632 H   0  0  0  0  0  0  0  0  0  0  0  0
    6.2265    1.3704    1.0950 H   0  0  0  0  0  0  0  0  0  0  0  0
    5.6249   -0.1439    1.7268 H   0  0  0  0  0  0  0  0  0  0  0  0
    4.0058    0.6863    0.1098 H   0  0  0  0  0  0  0  0  0  0  0  0
    3.9716    2.2538    0.8817 H   0  0  0  0  0  0  0  0  0  0  0  0
  1 17  1  0  0  0  0
  1 26  1  0  0  0  0
  1 27  1  0  0  0  0
  1 28  1  0  0  0  0
  2 17  1  0  0  0  0
  2  3  1  0  0  0  0
  2 24  2  0  0  0  0
  3 18  1  0  0  0  0
  3 29  1  0  0  0  0
  3 30  1  0  0  0  0
  4 18  1  0  0  0  0
  4  5  1  0  0  0  0
  4 25  2  0  0  0  0
  5 10  1  0  0  0  0
  5  6  2  0  0  0  0
  6  7  1  0  0  0  0
  6 32  1  0  0  0  0
  7 33  1  0  0  0  0
  7  8  2  0  0  0  0
  8  9  1  0  0  0  0
  8 23  1  0  0  0  0
  9 22  1  0  0  0  0
  9 19  2  0  0  0  0
 10 35  1  0  0  0  0
 10 23  2  0  0  0  0
 11 17  1  0  0  0  0
 11 12  1  0  0  0  0
 11 16  1  0  0  0  0
 11 36  1  0  0  0  0
 12 13  1  0  0  0  0
 12 37  1  0  0  0  0
 12 38  1  0  0  0  0
 13 14  1  0  0  0  0
 13 39  1  0  0  0  0
 13 40  1  0  0  0  0
 14 15  1  0  0  0  0
 14 41  1  0  0  0  0
 14 42  1  0  0  0  0
 15 16  1  0  0  0  0
 15 43  1  0  0  0  0
 15 44  1  0  0  0  0
 16 45  1  0  0  0  0
 16 46  1  0  0  0  0
 18 31  1  0  0  0  0
 19 20  1  0  0  0  0
 20 21  2  0  0  0  0
 21 22  1  0  0  0  0
 22 34  1  0  0  0  0
M  END
>  <score>
0.43738430738449097

$$$$
Z3621848855
 OpenBabel08202115463D

 45 47  0  0  0  0  0  0  0  0999 V2000
   -8.7175   -2.8696   -3.0108 C   0  0  0  0  0  0  0  0  0  0  0  0
   -6.3553   -2.7337   -2.9189 C   0  0  0  0  0  0  0  0  0  0  0  0
   -5.2136   -1.8775   -2.5125 C   0  0  0  0  0  0  0  0  0  0  0  0
   -3.2393   -1.0437   -2.0391 C   0  0  0  0  0  0  0  0  0  0  0  0
   -1.8337   -0.6401   -1.6686 C   0  0  0  0  0  0  0  0  0  0  0  0
    0.8145    1.0076   -0.2683 C   0  0  0  0  0  0  0  0  0  0  0  0
    1.7194    2.2034   -0.0202 C   0  0  1  0  0  0  0  0  0  0  0  0
    2.0015    2.6316    1.3856 C   0  0  0  0  0  0  0  0  0  0  0  0
    3.0718    1.9625    0.5814 C   0  0  1  0  0  0  0  0  0  0  0  0
    3.5931    0.5712    0.9023 C   0  0  0  0  0  0  0  0  0  0  0  0
    4.6570    0.5712    1.9672 C   0  0  0  0  0  0  0  0  0  0  0  0
    4.2981    0.5712    3.3061 C   0  0  0  0  0  0  0  0  0  0  0  0
    5.2755    0.5766    4.2834 C   0  0  0  0  0  0  0  0  0  0  0  0
    6.6145    0.5766    3.9247 C   0  0  0  0  0  0  0  0  0  0  0  0
    6.9721    0.5766    2.5896 C   0  0  0  0  0  0  0  0  0  0  0  0
    5.9920    0.5712    1.6094 C   0  0  0  0  0  0  0  0  0  0  0  0
   -3.8246   -2.1694   -2.4840 C   0  0  0  0  0  0  0  0  0  0  0  0
   -7.5288   -2.2148   -2.5410 O   0  0  0  0  0  0  0  0  0  0  0  0
   -6.2503   -3.7731   -3.5173 O   0  0  0  0  0  0  0  0  0  0  0  0
   -4.1864   -0.1014   -1.8048 O   0  0  0  0  0  0  0  0  0  0  0  0
   -1.1290    1.5993    1.3688 O   0  0  0  0  0  0  0  0  0  0  0  0
   -1.3524    2.2787   -0.9856 O   0  0  0  0  0  0  0  0  0  0  0  0
   -5.4513   -0.6512   -2.1063 N   0  0  0  0  0  0  0  0  0  0  0  0
   -1.6863   -0.0968   -0.3244 N   0  0  0  0  0  0  0  0  0  0  0  0
   -0.9104    1.3286   -0.0140 S   0  0  0  0  0  0  0  0  0  0  0  0
   -8.5673   -3.9290   -3.0062 H   0  0  0  0  0  0  0  0  0  0  0  0
   -8.9335   -2.5445   -4.0071 H   0  0  0  0  0  0  0  0  0  0  0  0
   -9.5375   -2.6231   -2.3690 H   0  0  0  0  0  0  0  0  0  0  0  0
   -1.5067    0.1032   -2.3654 H   0  0  0  0  0  0  0  0  0  0  0  0
   -1.2078   -1.5043   -1.7484 H   0  0  0  0  0  0  0  0  0  0  0  0
   -2.0637   -0.5986    0.4281 H   0  0  0  0  0  0  0  0  0  0  0  0
    0.9499    0.6902   -1.2812 H   0  0  0  0  0  0  0  0  0  0  0  0
    1.1097    0.2214    0.3948 H   0  0  0  0  0  0  0  0  0  0  0  0
    1.6621    2.9860   -0.7475 H   0  0  0  0  0  0  0  0  0  0  0  0
    1.5454    2.1141    2.2037 H   0  0  0  0  0  0  0  0  0  0  0  0
    2.0819    3.6722    1.6215 H   0  0  0  0  0  0  0  0  0  0  0  0
    3.8285    2.6304    0.2261 H   0  0  0  0  0  0  0  0  0  0  0  0
    4.0044    0.1474    0.0100 H   0  0  0  0  0  0  0  0  0  0  0  0
    2.7744   -0.0300    1.2387 H   0  0  0  0  0  0  0  0  0  0  0  0
    3.2936    0.5671    3.5753 H   0  0  0  0  0  0  0  0  0  0  0  0
    5.0063    0.5807    5.2879 H   0  0  0  0  0  0  0  0  0  0  0  0
    7.3499    0.5766    4.6600 H   0  0  0  0  0  0  0  0  0  0  0  0
    7.9766    0.5807    2.3204 H   0  0  0  0  0  0  0  0  0  0  0  0
    6.2611    0.5671    0.6048 H   0  0  0  0  0  0  0  0  0  0  0  0
   -3.3601   -3.0612   -2.7498 H   0  0  0  0  0  0  0  0  0  0  0  0
  1 18  1  0  0  0  0
  1 26  1  0  0  0  0
  1 27  1  0  0  0  0
  1 28  1  0  0  0  0
  2 18  1  0  0  0  0
  2  3  1  0  0  0  0
  2 19  2  0  0  0  0
  3 17  1  0  0  0  0
  3 23  2  0  0  0  0
  4 20  1  0  0  0  0
  4  5  1  0  0  0  0
  4 17  2  0  0  0  0
  5 24  1  0  0  0  0
  5 29  1  0  0  0  0
  5 30  1  0  0  0  0
  6  7  1  0  0  0  0
  6 32  1  0  0  0  0
  6 33  1  0  0  0  0
  7  8  1  0  0  0  0
  7  9  1  0  0  0  0
  7 34  1  6  0  0  0
  8  9  1  0  0  0  0
  8 35  1  0  0  0  0
  8 36  1  0  0  0  0
  9 10  1  0  0  0  0
  9 37  1  6  0  0  0
 10 11  1  0  0  0  0
 10 38  1  0  0  0  0
 10 39  1  0  0  0  0
 11 16  1  0  0  0  0
 11 12  2  0  0  0  0
 12 13  1  0  0  0  0
 12 40  1  0  0  0  0
 13 41  1  0  0  0  0
 13 14  2  0  0  0  0
 14 15  1  0  0  0  0
 14 42  1  0  0  0  0
 15 43  1  0  0  0  0
 15 16  2  0  0  0  0
 16 44  1  0  0  0  0
 17 45  1  0  0  0  0
 23 20  1  0  0  0  0
 24 31  1  0  0  0  0
 25 24  1  0  0  0  0
 25  6  1  0  0  0  0
 25 21  2  0  0  0  0
 25 22  2  0  0  0  0
M  END
>  <score>
0.43759399652481079

$$$$
PV-003390462709
 OpenBabel08202115463D

 49 51  0  0  0  0  0  0  0  0999 V2000
    3.7724    0.4176    2.4326 C   0  0  0  0  0  0  0  0  0  0  0  0
    4.4815    1.7519    2.6934 C   0  0  0  0  0  0  0  0  0  0  0  0
    5.9567    1.4940    3.0227 C   0  0  0  0  0  0  0  0  0  0  0  0
    3.7656    2.4900    3.8304 C   0  0  0  0  0  0  0  0  0  0  0  0
    4.3864    2.5810    1.4331 C   0  0  0  0  0  0  0  0  0  0  0  0
    2.4681    4.2805    1.2627 C   0  0  0  0  0  0  0  0  0  0  0  0
    1.1514    4.1512    0.8897 C   0  0  0  0  0  0  0  0  0  0  0  0
    0.9868    2.7937    0.5829 C   0  0  0  0  0  0  0  0  0  0  0  0
   -0.3570    0.8327   -0.1287 C   0  0  0  0  0  0  0  0  0  0  0  0
   -1.9661   -0.6773   -1.2600 C   0  0  0  0  0  0  0  0  0  0  0  0
   -0.9382   -1.5511   -1.5782 C   0  0  0  0  0  0  0  0  0  0  0  0
   -1.2233   -2.7685   -2.1673 C   0  0  0  0  0  0  0  0  0  0  0  0
   -2.5378   -3.1178   -2.4350 C   0  0  0  0  0  0  0  0  0  0  0  0
   -3.5628   -2.2467   -2.1177 C   0  0  0  0  0  0  0  0  0  0  0  0
   -4.9803   -2.5782   -2.3918 C   0  0  0  0  0  0  0  0  0  0  0  0
   -5.3164   -3.9352   -2.9479 C   0  0  0  0  0  0  0  0  0  0  0  0
   -6.2973   -4.2139   -4.0474 C   0  0  0  0  0  0  0  0  0  0  0  0
   -6.5540   -4.7274   -2.6652 C   0  0  0  0  0  0  0  0  0  0  0  0
   -3.2767   -1.0258   -1.5269 C   0  0  0  0  0  0  0  0  0  0  0  0
    3.0244    3.0492    1.1705 N   0  0  0  0  0  0  0  0  0  0  0  0
   -0.1863    2.1544    0.1431 N   0  0  0  0  0  0  0  0  0  0  0  0
   -1.5667    0.5354   -0.6697 N   0  0  0  0  0  0  0  0  0  0  0  0
    2.1261    2.1179    0.7594 N   0  0  0  0  0  0  0  0  0  0  0  0
    0.5141   -0.0173    0.0983 O   0  0  0  0  0  0  0  0  0  0  0  0
   -5.8623   -1.7670   -2.1715 O   0  0  0  0  0  0  0  0  0  0  0  0
    3.8071   -0.1841    3.3166 H   0  0  0  0  0  0  0  0  0  0  0  0
    4.2627   -0.0962    1.6323 H   0  0  0  0  0  0  0  0  0  0  0  0
    2.7524    0.6021    2.1668 H   0  0  0  0  0  0  0  0  0  0  0  0
    6.0261    0.9006    3.9104 H   0  0  0  0  0  0  0  0  0  0  0  0
    6.4557    2.4277    3.1782 H   0  0  0  0  0  0  0  0  0  0  0  0
    6.4178    0.9738    2.2093 H   0  0  0  0  0  0  0  0  0  0  0  0
    2.8597    2.8719    3.4081 H   0  0  0  0  0  0  0  0  0  0  0  0
    4.3735    3.2921    4.1940 H   0  0  0  0  0  0  0  0  0  0  0  0
    3.5471    1.8158    4.6320 H   0  0  0  0  0  0  0  0  0  0  0  0
    4.7097    1.9850    0.6054 H   0  0  0  0  0  0  0  0  0  0  0  0
    5.0280    3.4315    1.5330 H   0  0  0  0  0  0  0  0  0  0  0  0
    2.9455    5.1557    1.5588 H   0  0  0  0  0  0  0  0  0  0  0  0
    0.4315    4.9004    0.8449 H   0  0  0  0  0  0  0  0  0  0  0  0
   -0.9713    2.7275    0.0180 H   0  0  0  0  0  0  0  0  0  0  0  0
   -2.2391    1.2480   -0.6461 H   0  0  0  0  0  0  0  0  0  0  0  0
    0.0477   -1.2907   -1.3737 H   0  0  0  0  0  0  0  0  0  0  0  0
   -0.4517   -3.4223   -2.4098 H   0  0  0  0  0  0  0  0  0  0  0  0
   -2.7527   -4.0355   -2.8746 H   0  0  0  0  0  0  0  0  0  0  0  0
   -4.4507   -4.5600   -3.0192 H   0  0  0  0  0  0  0  0  0  0  0  0
   -6.0420   -4.8949   -4.8322 H   0  0  0  0  0  0  0  0  0  0  0  0
   -6.8967   -3.4209   -4.4434 H   0  0  0  0  0  0  0  0  0  0  0  0
   -7.3376   -4.3017   -2.0739 H   0  0  0  0  0  0  0  0  0  0  0  0
   -6.4829   -5.7756   -2.4627 H   0  0  0  0  0  0  0  0  0  0  0  0
   -4.0483   -0.3720   -1.2845 H   0  0  0  0  0  0  0  0  0  0  0  0
  1  2  1  0  0  0  0
  1 26  1  0  0  0  0
  1 27  1  0  0  0  0
  1 28  1  0  0  0  0
  2  3  1  0  0  0  0
  2  4  1  0  0  0  0
  2  5  1  0  0  0  0
  3 29  1  0  0  0  0
  3 30  1  0  0  0  0
  3 31  1  0  0  0  0
  4 32  1  0  0  0  0
  4 33  1  0  0  0  0
  4 34  1  0  0  0  0
  5 20  1  0  0  0  0
  5 35  1  0  0  0  0
  5 36  1  0  0  0  0
  6 20  1  0  0  0  0
  6 37  1  0  0  0  0
  6  7  2  0  0  0  0
  7  8  1  0  0  0  0
  7 38  1  0  0  0  0
  8 21  1  0  0  0  0
  8 23  2  0  0  0  0
  9 21  1  0  0  0  0
  9 22  1  0  0  0  0
  9 24  2  0  0  0  0
 10 22  1  0  0  0  0
 10 19  1  0  0  0  0
 10 11  2  0  0  0  0
 11 12  1  0  0  0  0
 11 41  1  0  0  0  0
 12 42  1  0  0  0  0
 12 13  2  0  0  0  0
 13 14  1  0  0  0  0
 13 43  1  0  0  0  0
 14 15  1  0  0  0  0
 14 19  2  0  0  0  0
 15 16  1  0  0  0  0
 15 25  2  0  0  0  0
 16 17  1  0  0  0  0
 16 18  1  0  0  0  0
 16 44  1  0  0  0  0
 17 18  1  0  0  0  0
 17 45  1  0  0  0  0
 17 46  1  0  0  0  0
 18 47  1  0  0  0  0
 18 48  1  0  0  0  0
 19 49  1  0  0  0  0
 20 23  1  0  0  0  0
 21 39  1  0  0  0  0
 22 40  1  0  0  0  0
M  END
>  <score>
0.43763148784637451

$$$$
PV-003407353743
 OpenBabel08202115463D

 51 53  0  0  0  0  0  0  0  0999 V2000
   -8.6088   -4.0415   -4.0153 C   0  0  0  0  0  0  0  0  0  0  0  0
   -6.4179   -3.3430   -3.4526 C   0  0  0  0  0  0  0  0  0  0  0  0
   -4.9556   -3.6281   -3.6884 C   0  0  0  0  0  0  0  0  0  0  0  0
   -3.2980   -2.8663   -2.0357 C   0  0  0  0  0  0  0  0  0  0  0  0
   -2.4430   -1.7489   -1.5615 C   0  0  0  0  0  0  0  0  0  0  0  0
   -1.1334   -1.6482   -2.0047 C   0  0  0  0  0  0  0  0  0  0  0  0
   -0.3594   -0.5649   -1.6334 C   0  0  0  0  0  0  0  0  0  0  0  0
   -0.8945    0.4235   -0.8222 C   0  0  0  0  0  0  0  0  0  0  0  0
   -0.0072    1.5882   -0.4514 C   0  0  0  0  0  0  0  0  0  0  0  0
    2.0654    2.0558    0.7689 C   0  0  0  0  0  0  0  0  0  0  0  0
    3.1184    1.5074    1.7078 C   0  0  1  0  0  0  0  0  0  0  0  0
    4.5367    1.8066    1.1944 C   0  0  0  0  0  0  0  0  0  0  0  0
    5.5075    2.6098    2.0511 C   0  0  2  0  0  0  0  0  0  0  0  0
    6.5815    2.3791    3.1426 C   0  0  0  0  0  0  0  0  0  0  0  0
    5.4876    2.5675    4.2026 C   0  0  1  0  0  0  0  0  0  0  0  0
    4.5572    2.7315    3.2146 C   0  0  2  0  0  0  0  0  0  0  0  0
    3.1092    2.2499    3.0547 C   0  0  0  0  0  0  0  0  0  0  0  0
   -2.2002    0.3232   -0.3802 C   0  0  0  0  0  0  0  0  0  0  0  0
   -2.9763   -0.7632   -0.7526 C   0  0  0  0  0  0  0  0  0  0  0  0
   -7.1865   -4.1769   -4.1607 O   0  0  0  0  0  0  0  0  0  0  0  0
   -6.8500   -2.4896   -2.7326 O   0  0  0  0  0  0  0  0  0  0  0  0
   -3.2776   -3.9499   -1.4756 O   0  0  0  0  0  0  0  0  0  0  0  0
    2.0873    3.2292    0.4006 O   0  0  0  0  0  0  0  0  0  0  0  0
   -4.0815   -2.6125   -3.1018 N   0  0  0  0  0  0  0  0  0  0  0  0
    1.1297    1.1893    0.3780 N   0  0  0  0  0  0  0  0  0  0  0  0
    5.2686    1.4187    5.0254 N   0  0  0  0  0  0  0  0  0  0  0  0
   -8.8642   -3.0044   -3.9514 H   0  0  0  0  0  0  0  0  0  0  0  0
   -8.9253   -4.5421   -3.1242 H   0  0  0  0  0  0  0  0  0  0  0  0
   -9.0967   -4.4771   -4.8622 H   0  0  0  0  0  0  0  0  0  0  0  0
   -4.7795   -3.6635   -4.7432 H   0  0  0  0  0  0  0  0  0  0  0  0
   -4.7175   -4.5767   -3.2544 H   0  0  0  0  0  0  0  0  0  0  0  0
   -4.0652   -1.7164   -3.4981 H   0  0  0  0  0  0  0  0  0  0  0  0
   -0.7332   -2.3878   -2.6166 H   0  0  0  0  0  0  0  0  0  0  0  0
    0.6244   -0.4915   -1.9627 H   0  0  0  0  0  0  0  0  0  0  0  0
   -0.5904    2.3044    0.0889 H   0  0  0  0  0  0  0  0  0  0  0  0
    0.3645    2.0350   -1.3498 H   0  0  0  0  0  0  0  0  0  0  0  0
    1.2066    0.2527    0.6561 H   0  0  0  0  0  0  0  0  0  0  0  0
    2.9659    0.4568    1.8411 H   0  0  0  0  0  0  0  0  0  0  0  0
    5.0017    0.8616    1.0057 H   0  0  0  0  0  0  0  0  0  0  0  0
    4.4248    2.3398    0.2735 H   0  0  0  0  0  0  0  0  0  0  0  0
    5.6594    3.5725    1.6088 H   0  0  0  0  0  0  0  0  0  0  0  0
    7.3534    3.1197    3.1671 H   0  0  0  0  0  0  0  0  0  0  0  0
    7.0222    1.4042    3.1304 H   0  0  0  0  0  0  0  0  0  0  0  0
    5.6236    3.4296    4.8217 H   0  0  0  0  0  0  0  0  0  0  0  0
    5.2277    0.6168    4.4635 H   0  0  0  0  0  0  0  0  0  0  0  0
    4.4231    1.5209    5.5103 H   0  0  0  0  0  0  0  0  0  0  0  0
    4.4049    3.8017    3.2342 H   0  0  0  0  0  0  0  0  0  0  0  0
    2.4324    3.0783    3.0289 H   0  0  0  0  0  0  0  0  0  0  0  0
    2.8364    1.5904    3.8519 H   0  0  0  0  0  0  0  0  0  0  0  0
   -2.6003    1.0629    0.2318 H   0  0  0  0  0  0  0  0  0  0  0  0
   -3.9601   -0.8367   -0.4233 H   0  0  0  0  0  0  0  0  0  0  0  0
  1 20  1  0  0  0  0
  1 27  1  0  0  0  0
  1 28  1  0  0  0  0
  1 29  1  0  0  0  0
  2 20  1  0  0  0  0
  2  3  1  0  0  0  0
  2 21  2  0  0  0  0
  3 24  1  0  0  0  0
  3 30  1  0  0  0  0
  3 31  1  0  0  0  0
  4 24  1  0  0  0  0
  4  5  1  0  0  0  0
  4 22  2  0  0  0  0
  5 19  1  0  0  0  0
  5  6  2  0  0  0  0
  6  7  1  0  0  0  0
  6 33  1  0  0  0  0
  7 34  1  0  0  0  0
  7  8  2  0  0  0  0
  8  9  1  0  0  0  0
  8 18  1  0  0  0  0
  9 25  1  0  0  0  0
  9 35  1  0  0  0  0
  9 36  1  0  0  0  0
 10 25  1  0  0  0  0
 10 11  1  0  0  0  0
 10 23  2  0  0  0  0
 11 12  1  0  0  0  0
 11 17  1  0  0  0  0
 11 38  1  1  0  0  0
 12 13  1  0  0  0  0
 12 39  1  0  0  0  0
 12 40  1  0  0  0  0
 13 14  1  0  0  0  0
 13 16  1  0  0  0  0
 13 41  1  6  0  0  0
 14 15  1  0  0  0  0
 14 42  1  0  0  0  0
 14 43  1  0  0  0  0
 15 26  1  0  0  0  0
 15 16  1  0  0  0  0
 15 44  1  1  0  0  0
 16 17  1  0  0  0  0
 16 47  1  1  0  0  0
 17 48  1  0  0  0  0
 17 49  1  0  0  0  0
 18 50  1  0  0  0  0
 18 19  2  0  0  0  0
 19 51  1  0  0  0  0
 24 32  1  0  0  0  0
 25 37  1  0  0  0  0
 26 45  1  0  0  0  0
 26 46  1  0  0  0  0
M  END
>  <score>
0.43782836198806763

$$$$
PV-003579182432
 OpenBabel08202115463D

 47 50  0  0  0  0  0  0  0  0999 V2000
    5.2993    0.2093    0.9437 C   0  0  0  0  0  0  0  0  0  0  0  0
    4.3010    1.1536    1.6001 C   0  0  1  0  0  0  0  0  0  0  0  0
    2.9241    0.9272    1.0060 C   0  0  0  0  0  0  0  0  0  0  0  0
    1.8454    1.8018    1.6316 C   0  0  0  0  0  0  0  0  0  0  0  0
    0.4832    1.4808    1.1448 C   0  0  0  0  0  0  0  0  0  0  0  0
   -1.2665    0.7660    0.2557 C   0  0  0  0  0  0  0  0  0  0  0  0
   -2.1710   -0.0584   -0.5750 C   0  0  0  0  0  0  0  0  0  0  0  0
   -3.5382    0.1646   -0.5247 C   0  0  0  0  0  0  0  0  0  0  0  0
   -4.3923   -0.6039   -1.2929 C   0  0  0  0  0  0  0  0  0  0  0  0
   -3.8814   -1.5939   -2.1178 C   0  0  0  0  0  0  0  0  0  0  0  0
   -4.8056   -2.4077   -2.9412 C   0  0  0  0  0  0  0  0  0  0  0  0
   -6.9641   -2.9313   -3.4022 C   0  0  0  0  0  0  0  0  0  0  0  0
   -4.4157   -3.4491   -3.7972 C   0  0  0  0  0  0  0  0  0  0  0  0
   -2.5182   -1.8161   -2.1680 C   0  0  0  0  0  0  0  0  0  0  0  0
   -1.6614   -1.0454   -1.3975 C   0  0  0  0  0  0  0  0  0  0  0  0
    4.2791    0.9559    3.0965 C   0  0  0  0  0  0  0  0  0  0  0  0
    5.1876    2.0318    3.6825 C   0  0  0  0  0  0  0  0  0  0  0  0
    5.7334    2.7559    2.4664 C   0  0  0  0  0  0  0  0  0  0  0  0
    0.0960    0.5528    0.3251 N   0  0  0  0  0  0  0  0  0  0  0  0
   -6.0893   -2.1519   -2.7418 N   0  0  0  0  0  0  0  0  0  0  0  0
   -8.2757   -2.6871   -3.2300 N   0  0  0  0  0  0  0  0  0  0  0  0
   -6.6198   -3.9382   -4.2228 N   0  0  0  0  0  0  0  0  0  0  0  0
   -5.3289   -4.1917   -4.4144 N   0  0  0  0  0  0  0  0  0  0  0  0
   -1.7022    1.7589    0.9846 N   0  0  0  0  0  0  0  0  0  0  0  0
    4.7165    2.5472    1.4347 N   0  0  0  0  0  0  0  0  0  0  0  0
   -0.5293    2.2428    1.5976 O   0  0  0  0  0  0  0  0  0  0  0  0
    5.0722   -0.7991    1.2202 H   0  0  0  0  0  0  0  0  0  0  0  0
    6.2887    0.4540    1.2695 H   0  0  0  0  0  0  0  0  0  0  0  0
    5.2385    0.3096   -0.1199 H   0  0  0  0  0  0  0  0  0  0  0  0
    2.6561   -0.0984    1.1518 H   0  0  0  0  0  0  0  0  0  0  0  0
    2.9676    1.1396   -0.0418 H   0  0  0  0  0  0  0  0  0  0  0  0
    2.0582    2.8242    1.3985 H   0  0  0  0  0  0  0  0  0  0  0  0
    1.8689    1.6650    2.6926 H   0  0  0  0  0  0  0  0  0  0  0  0
   -3.9212    0.9100    0.0911 H   0  0  0  0  0  0  0  0  0  0  0  0
   -5.4183   -0.4393   -1.2522 H   0  0  0  0  0  0  0  0  0  0  0  0
   -8.9317   -3.0780   -3.8442 H   0  0  0  0  0  0  0  0  0  0  0  0
   -8.5752   -2.1182   -2.4904 H   0  0  0  0  0  0  0  0  0  0  0  0
   -3.4050   -3.6411   -3.9497 H   0  0  0  0  0  0  0  0  0  0  0  0
   -2.1351   -2.5615   -2.7838 H   0  0  0  0  0  0  0  0  0  0  0  0
   -0.6353   -1.2099   -1.4382 H   0  0  0  0  0  0  0  0  0  0  0  0
    3.2829    1.0679    3.4706 H   0  0  0  0  0  0  0  0  0  0  0  0
    4.6474   -0.0170    3.3472 H   0  0  0  0  0  0  0  0  0  0  0  0
    5.9806    1.5916    4.2502 H   0  0  0  0  0  0  0  0  0  0  0  0
    4.6313    2.7010    4.3051 H   0  0  0  0  0  0  0  0  0  0  0  0
    5.8576    3.7989    2.6705 H   0  0  0  0  0  0  0  0  0  0  0  0
    6.6706    2.3369    2.1649 H   0  0  0  0  0  0  0  0  0  0  0  0
    5.0949    2.6914    0.5423 H   0  0  0  0  0  0  0  0  0  0  0  0
  1 27  1  0  0  0  0
  1 28  1  0  0  0  0
  1 29  1  0  0  0  0
  2  1  1  6  0  0  0
  2  3  1  0  0  0  0
  2 16  1  0  0  0  0
  2 25  1  0  0  0  0
  3  4  1  0  0  0  0
  3 30  1  0  0  0  0
  3 31  1  0  0  0  0
  4  5  1  0  0  0  0
  4 32  1  0  0  0  0
  4 33  1  0  0  0  0
  5 26  1  0  0  0  0
  5 19  2  0  0  0  0
  6 19  1  0  0  0  0
  6  7  1  0  0  0  0
  6 24  2  0  0  0  0
  7 15  1  0  0  0  0
  7  8  2  0  0  0  0
  8  9  1  0  0  0  0
  8 34  1  0  0  0  0
  9 35  1  0  0  0  0
  9 10  2  0  0  0  0
 10 11  1  0  0  0  0
 10 14  1  0  0  0  0
 11 13  1  0  0  0  0
 11 20  2  0  0  0  0
 12 20  1  0  0  0  0
 12 21  1  0  0  0  0
 12 22  2  0  0  0  0
 13 38  1  0  0  0  0
 13 23  2  0  0  0  0
 14 39  1  0  0  0  0
 14 15  2  0  0  0  0
 15 40  1  0  0  0  0
 16 17  1  0  0  0  0
 16 41  1  0  0  0  0
 16 42  1  0  0  0  0
 17 18  1  0  0  0  0
 17 43  1  0  0  0  0
 17 44  1  0  0  0  0
 18 25  1  0  0  0  0
 18 45  1  0  0  0  0
 18 46  1  0  0  0  0
 21 36  1  0  0  0  0
 21 37  1  0  0  0  0
 22 23  1  0  0  0  0
 24 26  1  0  0  0  0
 25 47  1  0  0  0  0
M  END
>  <score>
0.43801653385162354

$$$$
Z3357562205
 OpenBabel08202115463D

 54 55  0  0  0  0  0  0  0  0999 V2000
   -5.8129   -1.3075   -1.5396 C   0  0  0  0  0  0  0  0  0  0  0  0
   -5.7722   -1.8689   -2.9515 C   0  0  0  0  0  0  0  0  0  0  0  0
   -7.1535   -2.2253   -3.4765 C   0  0  0  0  0  0  0  0  0  0  0  0
   -2.3095   -2.1865   -2.8552 C   0  0  0  0  0  0  0  0  0  0  0  0
   -2.4247   -0.7267   -2.5627 C   0  0  0  0  0  0  0  0  0  0  0  0
   -1.2436    0.9128   -1.3280 C   0  0  0  0  0  0  0  0  0  0  0  0
   -0.2589    1.1141   -0.2398 C   0  0  0  0  0  0  0  0  0  0  0  0
    0.1960   -0.0042    0.4413 C   0  0  0  0  0  0  0  0  0  0  0  0
    1.0319    0.1437    1.5319 C   0  0  0  0  0  0  0  0  0  0  0  0
    1.4198    1.4099    1.9414 C   0  0  0  0  0  0  0  0  0  0  0  0
    2.3381    1.5719    3.1297 C   0  0  0  0  0  0  0  0  0  0  0  0
    4.2069    2.1986    1.7678 C   0  0  0  0  0  0  0  0  0  0  0  0
    5.6686    1.9450    1.4679 C   0  0  0  0  0  0  0  0  0  0  0  0
    6.0218    1.1780    3.6319 C   0  0  2  0  0  0  0  0  0  0  0  0
    6.1798   -0.2364    3.1216 C   0  0  0  0  0  0  0  0  0  0  0  0
    4.5729    1.4173    3.9765 C   0  0  0  0  0  0  0  0  0  0  0  0
    0.9662    2.5249    1.2622 C   0  0  0  0  0  0  0  0  0  0  0  0
    0.1277    2.3767    0.1683 C   0  0  0  0  0  0  0  0  0  0  0  0
   -4.8382   -3.0061   -3.0585 N   0  0  0  0  0  0  0  0  0  0  0  0
    3.7434    1.2713    2.7902 N   0  0  0  0  0  0  0  0  0  0  0  0
   -3.5247   -2.8854   -3.9488 S   0  0  0  0  0  0  0  0  0  0  0  0
   -3.7074   -1.9010   -4.9525 O   0  0  0  0  0  0  0  0  0  0  0  0
   -3.0187   -4.1879   -4.2528 O   0  0  0  0  0  0  0  0  0  0  0  0
   -1.3596   -0.3764   -1.6652 O   0  0  0  0  0  0  0  0  0  0  0  0
   -1.8706    1.7960   -1.8537 O   0  0  0  0  0  0  0  0  0  0  0  0
    6.4702    2.0851    2.6310 O   0  0  0  0  0  0  0  0  0  0  0  0
   -4.8478   -0.9257   -1.2791 H   0  0  0  0  0  0  0  0  0  0  0  0
   -6.0858   -2.0834   -0.8552 H   0  0  0  0  0  0  0  0  0  0  0  0
   -6.5335   -0.5181   -1.4905 H   0  0  0  0  0  0  0  0  0  0  0  0
   -5.3959   -1.0899   -3.5811 H   0  0  0  0  0  0  0  0  0  0  0  0
   -7.3431   -3.2645   -3.3062 H   0  0  0  0  0  0  0  0  0  0  0  0
   -7.1992   -2.0220   -4.5260 H   0  0  0  0  0  0  0  0  0  0  0  0
   -7.8903   -1.6404   -2.9668 H   0  0  0  0  0  0  0  0  0  0  0  0
   -5.0277   -3.8395   -2.5791 H   0  0  0  0  0  0  0  0  0  0  0  0
   -1.3472   -2.3537   -3.2922 H   0  0  0  0  0  0  0  0  0  0  0  0
   -2.3744   -2.7089   -1.9237 H   0  0  0  0  0  0  0  0  0  0  0  0
   -3.3695   -0.5202   -2.1051 H   0  0  0  0  0  0  0  0  0  0  0  0
   -2.3366   -0.1653   -3.4694 H   0  0  0  0  0  0  0  0  0  0  0  0
   -0.0918   -0.9545    0.1317 H   0  0  0  0  0  0  0  0  0  0  0  0
    1.3700   -0.6951    2.0454 H   0  0  0  0  0  0  0  0  0  0  0  0
    2.0203    0.9058    3.9045 H   0  0  0  0  0  0  0  0  0  0  0  0
    2.2758    2.5814    3.4787 H   0  0  0  0  0  0  0  0  0  0  0  0
    3.6324    2.0594    0.8759 H   0  0  0  0  0  0  0  0  0  0  0  0
    4.0855    3.2024    2.1178 H   0  0  0  0  0  0  0  0  0  0  0  0
    5.9992    2.6471    0.7313 H   0  0  0  0  0  0  0  0  0  0  0  0
    5.7780    0.9506    1.0881 H   0  0  0  0  0  0  0  0  0  0  0  0
    6.6158    1.3085    4.5122 H   0  0  0  0  0  0  0  0  0  0  0  0
    7.1519   -0.3540    2.6903 H   0  0  0  0  0  0  0  0  0  0  0  0
    5.4345   -0.4328    2.3794 H   0  0  0  0  0  0  0  0  0  0  0  0
    6.0648   -0.9233    3.9339 H   0  0  0  0  0  0  0  0  0  0  0  0
    4.2631    0.7066    4.7139 H   0  0  0  0  0  0  0  0  0  0  0  0
    4.4614    2.4077    4.3659 H   0  0  0  0  0  0  0  0  0  0  0  0
    1.2540    3.4751    1.5718 H   0  0  0  0  0  0  0  0  0  0  0  0
   -0.2103    3.2155   -0.3453 H   0  0  0  0  0  0  0  0  0  0  0  0
  1  2  1  0  0  0  0
  1 27  1  0  0  0  0
  1 28  1  0  0  0  0
  1 29  1  0  0  0  0
  2  3  1  0  0  0  0
  2 19  1  0  0  0  0
  2 30  1  0  0  0  0
  3 31  1  0  0  0  0
  3 32  1  0  0  0  0
  3 33  1  0  0  0  0
  4  5  1  0  0  0  0
  4 35  1  0  0  0  0
  4 36  1  0  0  0  0
  5 24  1  0  0  0  0
  5 37  1  0  0  0  0
  5 38  1  0  0  0  0
  6 24  1  0  0  0  0
  6  7  1  0  0  0  0
  6 25  2  0  0  0  0
  7 18  1  0  0  0  0
  7  8  2  0  0  0  0
  8  9  1  0  0  0  0
  8 39  1  0  0  0  0
  9 40  1  0  0  0  0
  9 10  2  0  0  0  0
 10 11  1  0  0  0  0
 10 17  1  0  0  0  0
 11 20  1  0  0  0  0
 11 41  1  0  0  0  0
 11 42  1  0  0  0  0
 12 20  1  0  0  0  0
 12 13  1  0  0  0  0
 12 43  1  0  0  0  0
 12 44  1  0  0  0  0
 13 26  1  0  0  0  0
 13 45  1  0  0  0  0
 13 46  1  0  0  0  0
 14 26  1  0  0  0  0
 14 15  1  0  0  0  0
 14 16  1  0  0  0  0
 14 47  1  1  0  0  0
 15 48  1  0  0  0  0
 15 49  1  0  0  0  0
 15 50  1  0  0  0  0
 16 20  1  0  0  0  0
 16 51  1  0  0  0  0
 16 52  1  0  0  0  0
 17 53  1  0  0  0  0
 17 18  2  0  0  0  0
 18 54  1  0  0  0  0
 19 34  1  0  0  0  0
 21 19  1  0  0  0  0
 21  4  1  0  0  0  0
 21 22  2  0  0  0  0
 21 23  2  0  0  0  0
M  END
>  <score>
0.43818950653076172

$$$$
PV-003374732680
 OpenBabel08202115463D

 39 40  0  0  0  0  0  0  0  0999 V2000
    5.0223    3.4811    2.0876 N   0  0  0  0  0  0  0  0  0  0  0  0
    1.7848   -0.2559    1.2441 N   0  0  0  0  0  0  0  0  0  0  0  0
   -1.7594    0.0570   -1.2459 N   0  0  0  0  0  0  0  0  0  0  0  0
   -3.9554   -3.5722   -1.6509 N   0  0  0  0  0  0  0  0  0  0  0  0
    5.0730    2.3532    2.2222 C   0  0  0  0  0  0  0  0  0  0  0  0
    5.1185    0.9151    2.4098 C   0  0  1  0  0  0  0  0  0  0  0  0
    4.6475    0.1636    3.6190 C   0  0  0  0  0  0  0  0  0  0  0  0
    3.9276    0.0134    2.3158 C   0  0  1  0  0  0  0  0  0  0  0  0
    2.5225    0.5036    2.0555 C   0  0  0  0  0  0  0  0  0  0  0  0
    0.4180    0.0392    0.8408 C   0  0  0  0  0  0  0  0  0  0  0  0
    0.3527    0.9679   -0.3500 C   0  0  1  0  0  0  0  0  0  0  0  0
   -1.0817    1.2423   -0.7399 C   0  0  0  0  0  0  0  0  0  0  0  0
   -3.0632    0.0644   -1.5893 C   0  0  0  0  0  0  0  0  0  0  0  0
   -3.7015   -1.2125   -1.9849 C   0  0  0  0  0  0  0  0  0  0  0  0
   -4.6083   -1.2422   -3.0264 C   0  0  0  0  0  0  0  0  0  0  0  0
   -5.1860   -2.4505   -3.3696 C   0  0  0  0  0  0  0  0  0  0  0  0
   -4.8311   -3.5822   -2.6604 C   0  0  0  0  0  0  0  0  0  0  0  0
   -3.4063   -2.3932   -1.3259 C   0  0  0  0  0  0  0  0  0  0  0  0
    1.0340    2.3060   -0.0629 C   0  0  0  0  0  0  0  0  0  0  0  0
    2.1026    1.5401    2.5683 O   0  0  0  0  0  0  0  0  0  0  0  0
   -3.7152    1.1136   -1.5754 O   0  0  0  0  0  0  0  0  0  0  0  0
   -6.0731   -2.4786   -4.3827 F   0  0  0  0  0  0  0  0  0  0  0  0
    2.3533    2.1632    0.0741 F   0  0  0  0  0  0  0  0  0  0  0  0
    0.5726    2.8271    1.0753 F   0  0  0  0  0  0  0  0  0  0  0  0
    0.8212    3.1945   -1.0212 F   0  0  0  0  0  0  0  0  0  0  0  0
    5.9912    0.4706    1.9789 H   0  0  0  0  0  0  0  0  0  0  0  0
    4.1847    0.6885    4.4284 H   0  0  0  0  0  0  0  0  0  0  0  0
    5.2293   -0.6471    4.0053 H   0  0  0  0  0  0  0  0  0  0  0  0
    4.1415   -0.9124    1.8237 H   0  0  0  0  0  0  0  0  0  0  0  0
    2.1941   -1.0743    0.8932 H   0  0  0  0  0  0  0  0  0  0  0  0
   -0.0902    0.4991    1.6625 H   0  0  0  0  0  0  0  0  0  0  0  0
   -0.0703   -0.8784    0.5872 H   0  0  0  0  0  0  0  0  0  0  0  0
    0.8478    0.5036   -1.1772 H   0  0  0  0  0  0  0  0  0  0  0  0
   -1.0922    1.9943   -1.5010 H   0  0  0  0  0  0  0  0  0  0  0  0
   -1.6089    1.5976    0.1207 H   0  0  0  0  0  0  0  0  0  0  0  0
   -1.2501   -0.7750   -1.3400 H   0  0  0  0  0  0  0  0  0  0  0  0
   -4.8518   -0.3726   -3.5423 H   0  0  0  0  0  0  0  0  0  0  0  0
   -5.2678   -4.4880   -2.9258 H   0  0  0  0  0  0  0  0  0  0  0  0
   -2.7253   -2.3643   -0.5404 H   0  0  0  0  0  0  0  0  0  0  0  0
  2 30  1  0  0  0  0
  3 36  1  0  0  0  0
  5  6  1  0  0  0  0
  5  1  3  0  0  0  0
  6  7  1  0  0  0  0
  6  8  1  0  0  0  0
  6 26  1  6  0  0  0
  7  8  1  0  0  0  0
  7 27  1  0  0  0  0
  7 28  1  0  0  0  0
  8  9  1  0  0  0  0
  8 29  1  6  0  0  0
  9  2  1  0  0  0  0
  9 20  2  0  0  0  0
 10  2  1  0  0  0  0
 10 11  1  0  0  0  0
 10 31  1  0  0  0  0
 10 32  1  0  0  0  0
 11 12  1  0  0  0  0
 11 19  1  0  0  0  0
 11 33  1  6  0  0  0
 12  3  1  0  0  0  0
 12 34  1  0  0  0  0
 12 35  1  0  0  0  0
 13  3  1  0  0  0  0
 13 14  1  0  0  0  0
 13 21  2  0  0  0  0
 14 18  1  0  0  0  0
 14 15  2  0  0  0  0
 15 16  1  0  0  0  0
 15 37  1  0  0  0  0
 16 22  1  0  0  0  0
 16 17  2  0  0  0  0
 17  4  1  0  0  0  0
 17 38  1  0  0  0  0
 18 39  1  0  0  0  0
 18  4  2  0  0  0  0
 19 23  1  0  0  0  0
 19 24  1  0  0  0  0
 19 25  1  0  0  0  0
M  END
>  <score>
0.43836480379104614

$$$$
PV-003606194009
 OpenBabel08202115463D

 56 58  0  0  0  0  0  0  0  0999 V2000
    1.5198    2.6376   -0.4246 C   0  0  0  0  0  0  0  0  0  0  0  0
   -0.8428    2.1881    0.2180 C   0  0  0  0  0  0  0  0  0  0  0  0
   -1.2696    0.9727   -0.6016 C   0  0  2  0  0  0  0  0  0  0  0  0
   -1.7342   -0.2364   -1.4159 C   0  0  2  0  0  0  0  0  0  0  0  0
   -3.2216   -0.3121   -1.8223 C   0  0  0  0  0  0  0  0  0  0  0  0
   -3.7878   -2.7870   -1.5911 C   0  0  0  0  0  0  0  0  0  0  0  0
   -4.9489   -2.5714   -2.5224 C   0  0  0  0  0  0  0  0  0  0  0  0
   -5.7677   -3.8148   -2.8436 C   0  0  0  0  0  0  0  0  0  0  0  0
   -6.7874   -3.5936   -3.9245 C   0  0  0  0  0  0  0  0  0  0  0  0
   -1.6924   -1.6650   -0.6691 C   0  0  0  0  0  0  0  0  0  0  0  0
   -1.7335   -0.3407    0.1232 C   0  0  1  0  0  0  0  0  0  0  0  0
    1.0051    1.7852    1.7996 C   0  0  0  0  0  0  0  0  0  0  0  0
    2.4915    1.8686    2.0672 C   0  0  1  0  0  0  0  0  0  0  0  0
    2.7229    1.8963    3.5641 C   0  0  0  0  0  0  0  0  0  0  0  0
    4.2188    1.8028    3.8717 C   0  0  0  0  0  0  0  0  0  0  0  0
    4.6499    0.6321    1.8365 C   0  0  0  0  0  0  0  0  0  0  0  0
    5.2941   -0.6225    1.2793 C   0  0  0  0  0  0  0  0  0  0  0  0
    5.3571    1.8575    1.2771 C   0  0  0  0  0  0  0  0  0  0  0  0
    3.1813    0.6681    1.4230 C   0  0  0  0  0  0  0  0  0  0  0  0
    0.5563    2.1528    0.5736 N   0  0  0  0  0  0  0  0  0  0  0  0
   -2.9934   -1.7134   -1.3849 N   0  0  0  0  0  0  0  0  0  0  0  0
   -3.5897   -3.8788   -1.0598 O   0  0  0  0  0  0  0  0  0  0  0  0
    0.2282    1.3951    2.6701 O   0  0  0  0  0  0  0  0  0  0  0  0
    4.7697    0.6294    3.2533 O   0  0  0  0  0  0  0  0  0  0  0  0
   -7.5942   -2.5084   -3.5864 F   0  0  0  0  0  0  0  0  0  0  0  0
    2.3143    3.1573    0.0688 H   0  0  0  0  0  0  0  0  0  0  0  0
    1.0264    3.3020   -1.1029 H   0  0  0  0  0  0  0  0  0  0  0  0
    1.9202    1.8064   -0.9666 H   0  0  0  0  0  0  0  0  0  0  0  0
   -1.0284    3.0714   -0.3567 H   0  0  0  0  0  0  0  0  0  0  0  0
   -1.4241    2.2175    1.1158 H   0  0  0  0  0  0  0  0  0  0  0  0
   -0.6745    0.9133   -1.4888 H   0  0  0  0  0  0  0  0  0  0  0  0
   -1.0303   -0.7968   -1.9957 H   0  0  0  0  0  0  0  0  0  0  0  0
   -4.2600   -0.1412   -2.0158 H   0  0  0  0  0  0  0  0  0  0  0  0
   -2.6537   -0.0939   -2.7026 H   0  0  0  0  0  0  0  0  0  0  0  0
   -4.5661   -2.1815   -3.4424 H   0  0  0  0  0  0  0  0  0  0  0  0
   -5.6024   -1.8525   -2.0742 H   0  0  0  0  0  0  0  0  0  0  0  0
   -6.2770   -4.1245   -1.9550 H   0  0  0  0  0  0  0  0  0  0  0  0
   -5.0998   -4.5884   -3.1605 H   0  0  0  0  0  0  0  0  0  0  0  0
   -7.3930   -4.4696   -4.0281 H   0  0  0  0  0  0  0  0  0  0  0  0
   -6.2887   -3.3927   -4.8496 H   0  0  0  0  0  0  0  0  0  0  0  0
   -0.8788   -1.6643   -1.3640 H   0  0  0  0  0  0  0  0  0  0  0  0
   -1.5950   -2.4990   -0.0059 H   0  0  0  0  0  0  0  0  0  0  0  0
   -1.7510   -0.3653    1.1930 H   0  0  0  0  0  0  0  0  0  0  0  0
    2.8819    2.7673    1.6372 H   0  0  0  0  0  0  0  0  0  0  0  0
    2.2175    1.0678    4.0147 H   0  0  0  0  0  0  0  0  0  0  0  0
    2.3369    2.8106    3.9640 H   0  0  0  0  0  0  0  0  0  0  0  0
    4.3608    1.7461    4.9307 H   0  0  0  0  0  0  0  0  0  0  0  0
    4.7147    2.6711    3.4908 H   0  0  0  0  0  0  0  0  0  0  0  0
    6.3273   -0.6469    1.5567 H   0  0  0  0  0  0  0  0  0  0  0  0
    5.2115   -0.6220    0.2125 H   0  0  0  0  0  0  0  0  0  0  0  0
    4.7982   -1.4839    1.6755 H   0  0  0  0  0  0  0  0  0  0  0  0
    6.3961    1.8163    1.5292 H   0  0  0  0  0  0  0  0  0  0  0  0
    4.9235    2.7414    1.6960 H   0  0  0  0  0  0  0  0  0  0  0  0
    5.2490    1.8765    0.2128 H   0  0  0  0  0  0  0  0  0  0  0  0
    3.1142    0.7492    0.3582 H   0  0  0  0  0  0  0  0  0  0  0  0
    2.7001   -0.2322    1.7437 H   0  0  0  0  0  0  0  0  0  0  0  0
  1 20  1  0  0  0  0
  1 26  1  0  0  0  0
  1 27  1  0  0  0  0
  1 28  1  0  0  0  0
  2 20  1  0  0  0  0
  2  3  1  0  0  0  0
  2 29  1  0  0  0  0
  2 30  1  0  0  0  0
  3  4  1  0  0  0  0
  3 11  1  0  0  0  0
  3 31  1  6  0  0  0
  4  5  1  0  0  0  0
  4 11  1  0  0  0  0
  4 32  1  6  0  0  0
  5 21  1  0  0  0  0
  5 33  1  0  0  0  0
  5 34  1  0  0  0  0
  6 21  1  0  0  0  0
  6  7  1  0  0  0  0
  6 22  2  0  0  0  0
  7  8  1  0  0  0  0
  7 35  1  0  0  0  0
  7 36  1  0  0  0  0
  8  9  1  0  0  0  0
  8 37  1  0  0  0  0
  8 38  1  0  0  0  0
  9 25  1  0  0  0  0
  9 39  1  0  0  0  0
  9 40  1  0  0  0  0
 10 21  1  0  0  0  0
 10 11  1  0  0  0  0
 10 41  1  0  0  0  0
 10 42  1  0  0  0  0
 11 43  1  1  0  0  0
 12 20  1  0  0  0  0
 12 13  1  0  0  0  0
 12 23  2  0  0  0  0
 13 14  1  0  0  0  0
 13 19  1  0  0  0  0
 13 44  1  6  0  0  0
 14 15  1  0  0  0  0
 14 45  1  0  0  0  0
 14 46  1  0  0  0  0
 15 24  1  0  0  0  0
 15 47  1  0  0  0  0
 15 48  1  0  0  0  0
 16 24  1  0  0  0  0
 16 17  1  0  0  0  0
 16 18  1  0  0  0  0
 16 19  1  0  0  0  0
 17 49  1  0  0  0  0
 17 50  1  0  0  0  0
 17 51  1  0  0  0  0
 18 52  1  0  0  0  0
 18 53  1  0  0  0  0
 18 54  1  0  0  0  0
 19 55  1  0  0  0  0
 19 56  1  0  0  0  0
M  END
>  <score>
0.43837976455688477

$$$$
Z3819729002
 OpenBabel08202115463D

 49 51  0  0  0  0  0  0  0  0999 V2000
   -6.0845   -3.7225   -3.7085 C   0  0  0  0  0  0  0  0  0  0  0  0
   -4.6136   -3.2305   -1.8606 C   0  0  2  0  0  0  0  0  0  0  0  0
   -4.5074   -2.7127   -0.4028 C   0  0  0  0  0  0  0  0  0  0  0  0
   -4.2428   -1.3023   -0.9880 C   0  0  1  0  0  0  0  0  0  0  0  0
   -3.1051   -0.5526   -0.3218 C   0  0  0  0  0  0  0  0  0  0  0  0
   -2.8408    0.7651   -1.0301 C   0  0  0  0  0  0  0  0  0  0  0  0
    0.9054    1.8991   -0.2352 C   0  0  0  0  0  0  0  0  0  0  0  0
    1.6498    2.9654    0.2448 C   0  0  0  0  0  0  0  0  0  0  0  0
    2.8114    2.7324    0.9565 C   0  0  0  0  0  0  0  0  0  0  0  0
    3.2293    1.4324    1.1951 C   0  0  0  0  0  0  0  0  0  0  0  0
    5.7610    0.9999    1.3679 C   0  0  0  0  0  0  0  0  0  0  0  0
    6.8268    1.4795    2.3718 C   0  0  0  0  0  0  0  0  0  0  0  0
    6.3634    0.8898    3.7352 C   0  0  0  0  0  0  0  0  0  0  0  0
    2.4870    0.3692    0.7165 C   0  0  0  0  0  0  0  0  0  0  0  0
    1.3219    0.6028    0.0026 C   0  0  0  0  0  0  0  0  0  0  0  0
   -3.8677   -1.9643   -2.3339 C   0  0  0  0  0  0  0  0  0  0  0  0
   -5.9400   -3.3417   -2.3451 O   0  0  0  0  0  0  0  0  0  0  0  0
   -0.8071    3.6067   -1.1514 O   0  0  0  0  0  0  0  0  0  0  0  0
   -0.4691    1.4883   -2.3848 O   0  0  0  0  0  0  0  0  0  0  0  0
    4.0782    2.2642    4.2430 O   0  0  0  0  0  0  0  0  0  0  0  0
    3.8456   -0.0555    4.1033 O   0  0  0  0  0  0  0  0  0  0  0  0
   -1.8041    1.5217   -0.3236 N   0  0  0  0  0  0  0  0  0  0  0  0
    4.4152    1.1939    1.9282 N   0  0  0  0  0  0  0  0  0  0  0  0
   -0.5725    2.1961   -1.1488 S   0  0  0  0  0  0  0  0  0  0  0  0
    4.5448    1.0810    3.5893 S   0  0  0  0  0  0  0  0  0  0  0  0
   -7.0599   -3.4501   -4.0539 H   0  0  0  0  0  0  0  0  0  0  0  0
   -5.9573   -4.7811   -3.7983 H   0  0  0  0  0  0  0  0  0  0  0  0
   -5.3450   -3.2225   -4.2985 H   0  0  0  0  0  0  0  0  0  0  0  0
   -4.0889   -4.1451   -2.0428 H   0  0  0  0  0  0  0  0  0  0  0  0
   -3.6928   -3.1224    0.1570 H   0  0  0  0  0  0  0  0  0  0  0  0
   -5.4097   -2.7965    0.1662 H   0  0  0  0  0  0  0  0  0  0  0  0
   -5.1076   -0.6737   -1.0317 H   0  0  0  0  0  0  0  0  0  0  0  0
   -2.2206   -1.1536   -0.3573 H   0  0  0  0  0  0  0  0  0  0  0  0
   -3.3634   -0.3571    0.6980 H   0  0  0  0  0  0  0  0  0  0  0  0
   -3.7429    1.3401   -1.0544 H   0  0  0  0  0  0  0  0  0  0  0  0
   -2.5152    0.5692   -2.0304 H   0  0  0  0  0  0  0  0  0  0  0  0
   -1.8520    1.6226    0.6500 H   0  0  0  0  0  0  0  0  0  0  0  0
    1.3342    3.9407    0.0693 H   0  0  0  0  0  0  0  0  0  0  0  0
    3.3720    3.5324    1.3131 H   0  0  0  0  0  0  0  0  0  0  0  0
    5.8510    1.5610    0.4613 H   0  0  0  0  0  0  0  0  0  0  0  0
    5.9117   -0.0391    1.1613 H   0  0  0  0  0  0  0  0  0  0  0  0
    7.7934    1.1052    2.1060 H   0  0  0  0  0  0  0  0  0  0  0  0
    6.8562    2.5483    2.4116 H   0  0  0  0  0  0  0  0  0  0  0  0
    6.7535    1.4495    4.5595 H   0  0  0  0  0  0  0  0  0  0  0  0
    6.6447   -0.1376    3.8360 H   0  0  0  0  0  0  0  0  0  0  0  0
    2.8026   -0.6061    0.8920 H   0  0  0  0  0  0  0  0  0  0  0  0
    0.7613   -0.1973   -0.3540 H   0  0  0  0  0  0  0  0  0  0  0  0
   -4.2948   -1.4933   -3.1945 H   0  0  0  0  0  0  0  0  0  0  0  0
   -2.8169   -2.0986   -2.4849 H   0  0  0  0  0  0  0  0  0  0  0  0
  1 17  1  0  0  0  0
  1 26  1  0  0  0  0
  1 27  1  0  0  0  0
  1 28  1  0  0  0  0
  2 17  1  0  0  0  0
  2  3  1  0  0  0  0
  2 16  1  0  0  0  0
  2 29  1  6  0  0  0
  3  4  1  0  0  0  0
  3 30  1  0  0  0  0
  3 31  1  0  0  0  0
  4  5  1  0  0  0  0
  4 16  1  0  0  0  0
  4 32  1  6  0  0  0
  5  6  1  0  0  0  0
  5 33  1  0  0  0  0
  5 34  1  0  0  0  0
  6 22  1  0  0  0  0
  6 35  1  0  0  0  0
  6 36  1  0  0  0  0
  7 15  1  0  0  0  0
  7  8  2  0  0  0  0
  8  9  1  0  0  0  0
  8 38  1  0  0  0  0
  9 39  1  0  0  0  0
  9 10  2  0  0  0  0
 10 23  1  0  0  0  0
 10 14  1  0  0  0  0
 11 23  1  0  0  0  0
 11 12  1  0  0  0  0
 11 40  1  0  0  0  0
 11 41  1  0  0  0  0
 12 13  1  0  0  0  0
 12 42  1  0  0  0  0
 12 43  1  0  0  0  0
 13 44  1  0  0  0  0
 13 45  1  0  0  0  0
 14 46  1  0  0  0  0
 14 15  2  0  0  0  0
 15 47  1  0  0  0  0
 16 48  1  0  0  0  0
 16 49  1  0  0  0  0
 22 37  1  0  0  0  0
 24 22  1  0  0  0  0
 24  7  1  0  0  0  0
 24 18  2  0  0  0  0
 24 19  2  0  0  0  0
 25 23  1  0  0  0  0
 25 13  1  0  0  0  0
 25 20  2  0  0  0  0
 25 21  2  0  0  0  0
M  END
>  <score>
0.4384194016456604

$$$$
PV-004064364536
 OpenBabel08202115463D

 48 50  0  0  0  0  0  0  0  0999 V2000
   -1.9689    1.9355   -0.3448 C   0  0  0  0  0  0  0  0  0  0  0  0
   -0.0366    1.2851    1.0796 C   0  0  0  0  0  0  0  0  0  0  0  0
    1.2170    1.6143    0.3076 C   0  0  0  0  0  0  0  0  0  0  0  0
    3.1140    0.9841    1.7464 C   0  0  0  0  0  0  0  0  0  0  0  0
    4.2488    1.5325    2.5765 C   0  0  1  0  0  0  0  0  0  0  0  0
    4.1022    1.0548    4.0189 C   0  0  0  0  0  0  0  0  0  0  0  0
    5.4892    1.0909    2.0472 C   0  0  0  0  0  0  0  0  0  0  0  0
    6.2420    2.2370    1.6779 C   0  0  0  0  0  0  0  0  0  0  0  0
    5.4643    3.3881    1.9791 C   0  0  0  0  0  0  0  0  0  0  0  0
   -1.4002   -0.4324    0.0985 C   0  0  0  0  0  0  0  0  0  0  0  0
   -2.4055   -0.8938   -0.8988 C   0  0  0  0  0  0  0  0  0  0  0  0
   -3.8360   -2.1641   -1.9745 C   0  0  0  0  0  0  0  0  0  0  0  0
   -4.7690   -3.1110   -2.6162 C   0  0  0  0  0  0  0  0  0  0  0  0
   -5.4950   -3.0813   -3.7808 C   0  0  0  0  0  0  0  0  0  0  0  0
   -7.1626   -4.6973   -4.7726 C   0  0  0  0  0  0  0  0  0  0  0  0
   -2.9968   -2.1843   -0.9244 C   0  0  0  0  0  0  0  0  0  0  0  0
   -1.1382    0.8743    0.2112 N   0  0  0  0  0  0  0  0  0  0  0  0
    2.3796    1.9354    1.1374 N   0  0  0  0  0  0  0  0  0  0  0  0
   -2.8587   -0.1425   -1.8763 N   0  0  0  0  0  0  0  0  0  0  0  0
   -6.1650   -4.2492   -3.8068 N   0  0  0  0  0  0  0  0  0  0  0  0
   -5.8747   -4.9889   -2.7166 N   0  0  0  0  0  0  0  0  0  0  0  0
   -5.0295   -4.2986   -1.9943 N   0  0  0  0  0  0  0  0  0  0  0  0
    2.9070   -0.2253    1.6560 O   0  0  0  0  0  0  0  0  0  0  0  0
    4.2330    2.9528    2.5355 O   0  0  0  0  0  0  0  0  0  0  0  0
   -0.8478   -1.2892    0.7841 O   0  0  0  0  0  0  0  0  0  0  0  0
   -3.7862   -0.9476   -2.5725 O   0  0  0  0  0  0  0  0  0  0  0  0
   -1.5546    2.0733   -1.3217 H   0  0  0  0  0  0  0  0  0  0  0  0
   -1.8910    2.8304    0.2365 H   0  0  0  0  0  0  0  0  0  0  0  0
   -2.9939    1.6335   -0.4001 H   0  0  0  0  0  0  0  0  0  0  0  0
    0.1791    0.4880    1.7601 H   0  0  0  0  0  0  0  0  0  0  0  0
   -0.3384    2.1521    1.6293 H   0  0  0  0  0  0  0  0  0  0  0  0
    1.0112    2.4574   -0.3183 H   0  0  0  0  0  0  0  0  0  0  0  0
    1.4650    0.7698   -0.3009 H   0  0  0  0  0  0  0  0  0  0  0  0
    2.6324    2.8750    1.2540 H   0  0  0  0  0  0  0  0  0  0  0  0
    4.8964    1.4587    4.6114 H   0  0  0  0  0  0  0  0  0  0  0  0
    4.1449   -0.0140    4.0465 H   0  0  0  0  0  0  0  0  0  0  0  0
    3.1625    1.3849    4.4099 H   0  0  0  0  0  0  0  0  0  0  0  0
    6.0209    0.5305    2.7876 H   0  0  0  0  0  0  0  0  0  0  0  0
    5.3189    0.4763    1.1880 H   0  0  0  0  0  0  0  0  0  0  0  0
    7.1582    2.2631    2.2301 H   0  0  0  0  0  0  0  0  0  0  0  0
    6.4572    2.2081    0.6302 H   0  0  0  0  0  0  0  0  0  0  0  0
    5.9838    4.0029    2.6841 H   0  0  0  0  0  0  0  0  0  0  0  0
    5.2812    3.9466    1.0850 H   0  0  0  0  0  0  0  0  0  0  0  0
   -5.5219   -2.3210   -4.4899 H   0  0  0  0  0  0  0  0  0  0  0  0
   -7.3585   -3.9131   -5.4737 H   0  0  0  0  0  0  0  0  0  0  0  0
   -8.0668   -4.9507   -4.2596 H   0  0  0  0  0  0  0  0  0  0  0  0
   -6.7942   -5.5567   -5.2929 H   0  0  0  0  0  0  0  0  0  0  0  0
   -2.8191   -2.9744   -0.2719 H   0  0  0  0  0  0  0  0  0  0  0  0
  1 17  1  0  0  0  0
  1 27  1  0  0  0  0
  1 28  1  0  0  0  0
  1 29  1  0  0  0  0
  2 17  1  0  0  0  0
  2  3  1  0  0  0  0
  2 30  1  0  0  0  0
  2 31  1  0  0  0  0
  3 18  1  0  0  0  0
  3 32  1  0  0  0  0
  3 33  1  0  0  0  0
  4 18  1  0  0  0  0
  4 23  2  0  0  0  0
  5  4  1  6  0  0  0
  5  6  1  0  0  0  0
  5  7  1  0  0  0  0
  5 24  1  0  0  0  0
  6 35  1  0  0  0  0
  6 36  1  0  0  0  0
  6 37  1  0  0  0  0
  7  8  1  0  0  0  0
  7 38  1  0  0  0  0
  7 39  1  0  0  0  0
  8  9  1  0  0  0  0
  8 40  1  0  0  0  0
  8 41  1  0  0  0  0
  9 24  1  0  0  0  0
  9 42  1  0  0  0  0
  9 43  1  0  0  0  0
 10 17  1  0  0  0  0
 10 11  1  0  0  0  0
 10 25  2  0  0  0  0
 11 16  1  0  0  0  0
 11 19  2  0  0  0  0
 12 26  1  0  0  0  0
 12 13  1  0  0  0  0
 12 16  2  0  0  0  0
 13 22  1  0  0  0  0
 13 14  2  0  0  0  0
 14 20  1  0  0  0  0
 14 44  1  0  0  0  0
 15 20  1  0  0  0  0
 15 45  1  0  0  0  0
 15 46  1  0  0  0  0
 15 47  1  0  0  0  0
 16 48  1  0  0  0  0
 18 34  1  0  0  0  0
 19 26  1  0  0  0  0
 20 21  1  0  0  0  0
 21 22  2  0  0  0  0
M  END
>  <score>
0.4384339451789856

$$$$
PV-003987633097
 OpenBabel08202115463D

 57 59  0  0  0  0  0  0  0  0999 V2000
    6.7867    1.9376    4.0808 C   0  0  0  0  0  0  0  0  0  0  0  0
    5.5992    1.0672    3.7855 C   0  0  0  0  0  0  0  0  0  0  0  0
    4.1615    0.3824    2.0152 C   0  0  0  0  0  0  0  0  0  0  0  0
    3.6496    0.8753    0.6529 C   0  0  0  0  0  0  0  0  0  0  0  0
    2.6127   -0.0291    0.0158 C   0  0  0  0  0  0  0  0  0  0  0  0
    0.9078    1.0430    1.4465 C   0  0  0  0  0  0  0  0  0  0  0  0
   -0.1875    1.9318    0.8853 C   0  0  1  0  0  0  0  0  0  0  0  0
    0.3871    2.7675   -0.2653 C   0  0  0  0  0  0  0  0  0  0  0  0
   -1.3505    1.1076    0.3654 C   0  0  0  0  0  0  0  0  0  0  0  0
   -0.8627    0.0874   -0.6554 C   0  0  1  0  0  0  0  0  0  0  0  0
   -2.9965   -0.3328   -1.7998 C   0  0  0  0  0  0  0  0  0  0  0  0
   -4.0111   -1.3416   -2.0670 C   0  0  0  0  0  0  0  0  0  0  0  0
   -3.9638   -2.6859   -1.7531 C   0  0  0  0  0  0  0  0  0  0  0  0
   -5.1583   -3.2717   -2.1968 C   0  0  0  0  0  0  0  0  0  0  0  0
   -5.5995   -4.7125   -2.0927 C   0  0  0  0  0  0  0  0  0  0  0  0
   -5.9194   -2.2683   -2.7809 C   0  0  0  0  0  0  0  0  0  0  0  0
   -7.2666   -2.3434   -3.4128 C   0  0  0  0  0  0  0  0  0  0  0  0
    0.2572   -0.7738   -0.0891 C   0  0  0  0  0  0  0  0  0  0  0  0
    4.6721    1.6418   -0.1263 C   0  0  0  0  0  0  0  0  0  0  0  0
    3.5312    2.3619    0.5286 C   0  0  0  0  0  0  0  0  0  0  0  0
    5.1541    1.2997    2.4557 O   0  0  0  0  0  0  0  0  0  0  0  0
    2.9886   -0.8134   -0.8514 O   0  0  0  0  0  0  0  0  0  0  0  0
   -3.0928    0.8083   -2.2473 O   0  0  0  0  0  0  0  0  0  0  0  0
    1.3355    0.0744    0.4333 N   0  0  0  0  0  0  0  0  0  0  0  0
   -1.9746   -0.7716   -1.0344 N   0  0  0  0  0  0  0  0  0  0  0  0
   -5.2142   -1.1061   -2.6941 N   0  0  0  0  0  0  0  0  0  0  0  0
    7.5503    1.7588    3.3529 H   0  0  0  0  0  0  0  0  0  0  0  0
    7.1630    1.7084    5.0558 H   0  0  0  0  0  0  0  0  0  0  0  0
    6.4929    2.9658    4.0439 H   0  0  0  0  0  0  0  0  0  0  0  0
    4.8100    1.2981    4.4702 H   0  0  0  0  0  0  0  0  0  0  0  0
    5.8761    0.0393    3.8932 H   0  0  0  0  0  0  0  0  0  0  0  0
    3.3557    0.3506    2.7184 H   0  0  0  0  0  0  0  0  0  0  0  0
    4.5862   -0.5945    1.9141 H   0  0  0  0  0  0  0  0  0  0  0  0
    1.7426    1.6477    1.7332 H   0  0  0  0  0  0  0  0  0  0  0  0
    0.5354    0.5194    2.3022 H   0  0  0  0  0  0  0  0  0  0  0  0
   -0.5391    2.5826    1.6585 H   0  0  0  0  0  0  0  0  0  0  0  0
    0.8430    2.1194   -0.9844 H   0  0  0  0  0  0  0  0  0  0  0  0
    1.1203    3.4458    0.1185 H   0  0  0  0  0  0  0  0  0  0  0  0
   -0.4010    3.3202   -0.7325 H   0  0  0  0  0  0  0  0  0  0  0  0
   -1.8128    0.5951    1.1829 H   0  0  0  0  0  0  0  0  0  0  0  0
   -2.0635    1.7570   -0.0982 H   0  0  0  0  0  0  0  0  0  0  0  0
   -0.5007    0.6051   -1.5191 H   0  0  0  0  0  0  0  0  0  0  0  0
   -1.9819   -1.7008   -0.7232 H   0  0  0  0  0  0  0  0  0  0  0  0
   -3.1820   -3.1761   -1.2733 H   0  0  0  0  0  0  0  0  0  0  0  0
   -4.9259   -5.2472   -1.4560 H   0  0  0  0  0  0  0  0  0  0  0  0
   -5.5984   -5.1569   -3.0660 H   0  0  0  0  0  0  0  0  0  0  0  0
   -6.5868   -4.7542   -1.6821 H   0  0  0  0  0  0  0  0  0  0  0  0
   -7.8518   -3.0905   -2.9186 H   0  0  0  0  0  0  0  0  0  0  0  0
   -7.1617   -2.5989   -4.4466 H   0  0  0  0  0  0  0  0  0  0  0  0
   -7.7539   -1.3946   -3.3270 H   0  0  0  0  0  0  0  0  0  0  0  0
   -5.5169   -0.2355   -3.0269 H   0  0  0  0  0  0  0  0  0  0  0  0
   -0.1298   -1.3807    0.7026 H   0  0  0  0  0  0  0  0  0  0  0  0
    0.6456   -1.4019   -0.8634 H   0  0  0  0  0  0  0  0  0  0  0  0
    4.7085    1.5546   -1.1921 H   0  0  0  0  0  0  0  0  0  0  0  0
    5.6649    1.7519    0.2572 H   0  0  0  0  0  0  0  0  0  0  0  0
    3.7100    2.9857    1.3793 H   0  0  0  0  0  0  0  0  0  0  0  0
    2.7536    2.7884   -0.0700 H   0  0  0  0  0  0  0  0  0  0  0  0
  1  2  1  0  0  0  0
  1 27  1  0  0  0  0
  1 28  1  0  0  0  0
  1 29  1  0  0  0  0
  2 21  1  0  0  0  0
  2 30  1  0  0  0  0
  2 31  1  0  0  0  0
  3 21  1  0  0  0  0
  3  4  1  0  0  0  0
  3 32  1  0  0  0  0
  3 33  1  0  0  0  0
  4  5  1  0  0  0  0
  4 19  1  0  0  0  0
  4 20  1  0  0  0  0
  5 24  1  0  0  0  0
  5 22  2  0  0  0  0
  6 24  1  0  0  0  0
  6  7  1  0  0  0  0
  6 34  1  0  0  0  0
  6 35  1  0  0  0  0
  7  8  1  0  0  0  0
  7  9  1  0  0  0  0
  7 36  1  1  0  0  0
  8 37  1  0  0  0  0
  8 38  1  0  0  0  0
  8 39  1  0  0  0  0
  9 10  1  0  0  0  0
  9 40  1  0  0  0  0
  9 41  1  0  0  0  0
 10 25  1  0  0  0  0
 10 18  1  0  0  0  0
 10 42  1  6  0  0  0
 11 25  1  0  0  0  0
 11 12  1  0  0  0  0
 11 23  2  0  0  0  0
 12 26  1  0  0  0  0
 12 13  2  0  0  0  0
 13 14  1  0  0  0  0
 13 44  1  0  0  0  0
 14 15  1  0  0  0  0
 14 16  2  0  0  0  0
 15 45  1  0  0  0  0
 15 46  1  0  0  0  0
 15 47  1  0  0  0  0
 16 17  1  0  0  0  0
 16 26  1  0  0  0  0
 17 48  1  0  0  0  0
 17 49  1  0  0  0  0
 17 50  1  0  0  0  0
 18 24  1  0  0  0  0
 18 52  1  0  0  0  0
 18 53  1  0  0  0  0
 19 20  1  0  0  0  0
 19 54  1  0  0  0  0
 19 55  1  0  0  0  0
 20 56  1  0  0  0  0
 20 57  1  0  0  0  0
 25 43  1  0  0  0  0
 26 51  1  0  0  0  0
M  END
>  <score>
0.43844854831695557

$$$$
PV-004027016313
 OpenBabel08202115463D

 47 50  0  0  0  0  0  0  0  0999 V2000
   -0.1666    1.8467   -1.9630 C   0  0  0  0  0  0  0  0  0  0  0  0
   -1.1776    1.6982   -0.8378 C   0  0  1  0  0  0  0  0  0  0  0  0
   -2.3587    0.8235   -1.2784 C   0  0  0  0  0  0  0  0  0  0  0  0
   -2.6090   -1.6441   -1.0387 C   0  0  0  0  0  0  0  0  0  0  0  0
   -3.6808   -1.6147   -2.1379 C   0  0  1  0  0  0  0  0  0  0  0  0
   -3.6350   -2.8863   -2.9668 C   0  0  0  0  0  0  0  0  0  0  0  0
   -4.9962   -3.5252   -2.7547 C   0  0  0  0  0  0  0  0  0  0  0  0
   -5.0539   -1.6090   -1.5390 C   0  0  0  0  0  0  0  0  0  0  0  0
   -0.6817   -0.5207   -0.0939 C   0  0  0  0  0  0  0  0  0  0  0  0
   -0.5723    0.9384    0.3372 C   0  0  1  0  0  0  0  0  0  0  0  0
    1.7518    0.7310    1.3269 C   0  0  0  0  0  0  0  0  0  0  0  0
    2.7885    1.6280    1.3956 C   0  0  0  0  0  0  0  0  0  0  0  0
    4.0385    1.5563    2.1919 C   0  0  0  0  0  0  0  0  0  0  0  0
    4.8958    2.6330    2.3234 C   0  0  0  0  0  0  0  0  0  0  0  0
    6.0380    2.4839    3.0868 C   0  0  0  0  0  0  0  0  0  0  0  0
    5.5256    0.3088    3.5679 C   0  0  0  0  0  0  0  0  0  0  0  0
    4.3592    0.3718    2.8258 C   0  0  0  0  0  0  0  0  0  0  0  0
   -1.9460   -0.5283   -0.8603 N   0  0  0  0  0  0  0  0  0  0  0  0
    0.8282    1.3210    0.5443 N   0  0  0  0  0  0  0  0  0  0  0  0
    6.3636    1.3460    3.7075 N   0  0  0  0  0  0  0  0  0  0  0  0
    5.7574   -0.9026    4.1514 N   0  0  0  0  0  0  0  0  0  0  0  0
    2.4413    2.7219    0.6554 N   0  0  0  0  0  0  0  0  0  0  0  0
    1.2526    2.5362    0.1405 N   0  0  0  0  0  0  0  0  0  0  0  0
   -2.4023   -2.6506   -0.3840 O   0  0  0  0  0  0  0  0  0  0  0  0
   -5.8580   -2.4542   -2.3603 O   0  0  0  0  0  0  0  0  0  0  0  0
   -3.4934   -0.5136   -2.9298 F   0  0  0  0  0  0  0  0  0  0  0  0
   -0.6760    2.0967   -2.8702 H   0  0  0  0  0  0  0  0  0  0  0  0
    0.3604    0.9246   -2.0926 H   0  0  0  0  0  0  0  0  0  0  0  0
    0.5275    2.6234   -1.7183 H   0  0  0  0  0  0  0  0  0  0  0  0
   -1.5153    2.6660   -0.5309 H   0  0  0  0  0  0  0  0  0  0  0  0
   -3.2610    1.1195   -0.7853 H   0  0  0  0  0  0  0  0  0  0  0  0
   -2.4983    0.8720   -2.3382 H   0  0  0  0  0  0  0  0  0  0  0  0
   -2.8554   -3.5338   -2.6236 H   0  0  0  0  0  0  0  0  0  0  0  0
   -3.4808   -2.6586   -4.0009 H   0  0  0  0  0  0  0  0  0  0  0  0
   -5.3456   -3.9727   -3.6616 H   0  0  0  0  0  0  0  0  0  0  0  0
   -4.9459   -4.2680   -1.9862 H   0  0  0  0  0  0  0  0  0  0  0  0
   -5.0222   -1.9875   -0.5387 H   0  0  0  0  0  0  0  0  0  0  0  0
   -5.4499   -0.6150   -1.5324 H   0  0  0  0  0  0  0  0  0  0  0  0
   -0.7382   -1.1718    0.7533 H   0  0  0  0  0  0  0  0  0  0  0  0
    0.1460   -0.8060   -0.7091 H   0  0  0  0  0  0  0  0  0  0  0  0
   -1.1274    1.1153    1.2346 H   0  0  0  0  0  0  0  0  0  0  0  0
    1.6924   -0.2027    1.7812 H   0  0  0  0  0  0  0  0  0  0  0  0
    4.6850    3.5381    1.8565 H   0  0  0  0  0  0  0  0  0  0  0  0
    6.6769    3.2988    3.1832 H   0  0  0  0  0  0  0  0  0  0  0  0
    6.3504   -0.9665    4.9290 H   0  0  0  0  0  0  0  0  0  0  0  0
    5.3309   -1.7088    3.7929 H   0  0  0  0  0  0  0  0  0  0  0  0
    3.7359   -0.4571    2.7469 H   0  0  0  0  0  0  0  0  0  0  0  0
  1  2  1  0  0  0  0
  1 27  1  0  0  0  0
  1 28  1  0  0  0  0
  1 29  1  0  0  0  0
  2  3  1  0  0  0  0
  2 10  1  0  0  0  0
  2 30  1  1  0  0  0
  3 18  1  0  0  0  0
  3 31  1  0  0  0  0
  3 32  1  0  0  0  0
  4 18  1  0  0  0  0
  4  5  1  0  0  0  0
  4 24  2  0  0  0  0
  5 26  1  6  0  0  0
  5  6  1  0  0  0  0
  5  8  1  0  0  0  0
  6  7  1  0  0  0  0
  6 33  1  0  0  0  0
  6 34  1  0  0  0  0
  7 25  1  0  0  0  0
  7 35  1  0  0  0  0
  7 36  1  0  0  0  0
  8 25  1  0  0  0  0
  8 37  1  0  0  0  0
  8 38  1  0  0  0  0
  9 18  1  0  0  0  0
  9 10  1  0  0  0  0
  9 39  1  0  0  0  0
  9 40  1  0  0  0  0
 10 19  1  0  0  0  0
 10 41  1  1  0  0  0
 11 19  1  0  0  0  0
 11 42  1  0  0  0  0
 11 12  2  0  0  0  0
 12 13  1  0  0  0  0
 12 22  1  0  0  0  0
 13 17  1  0  0  0  0
 13 14  2  0  0  0  0
 14 15  1  0  0  0  0
 14 43  1  0  0  0  0
 15 44  1  0  0  0  0
 15 20  2  0  0  0  0
 16 20  1  0  0  0  0
 16 21  1  0  0  0  0
 16 17  2  0  0  0  0
 17 47  1  0  0  0  0
 19 23  1  0  0  0  0
 21 45  1  0  0  0  0
 21 46  1  0  0  0  0
 22 23  2  0  0  0  0
M  END
>  <score>
0.43851578235626221

$$$$
Z3561491473
 OpenBabel08202115463D

 41 43  0  0  0  0  0  0  0  0999 V2000
   -7.2591   -2.8163   -3.3781 C   0  0  0  0  0  0  0  0  0  0  0  0
   -5.3370   -1.5622   -2.6496 C   0  0  0  0  0  0  0  0  0  0  0  0
   -4.0380   -1.7167   -1.9495 C   0  0  0  0  0  0  0  0  0  0  0  0
   -3.1852   -0.6472   -1.7512 C   0  0  0  0  0  0  0  0  0  0  0  0
   -2.0017   -0.9127   -1.0925 C   0  0  0  0  0  0  0  0  0  0  0  0
    0.2435   -0.1399   -0.3045 C   0  0  0  0  0  0  0  0  0  0  0  0
    1.0345    1.1530   -0.2512 C   0  0  0  0  0  0  0  0  0  0  0  0
    2.4311    0.9847    0.3476 C   0  0  0  0  0  0  0  0  0  0  0  0
    2.4527    0.7271    1.8653 C   0  0  0  0  0  0  0  0  0  0  0  0
    3.6787    1.6395    1.9157 C   0  0  0  0  0  0  0  0  0  0  0  0
    3.9982    2.4664    3.1616 C   0  0  0  0  0  0  0  0  0  0  0  0
    5.0402    1.3864    3.5051 C   0  0  0  0  0  0  0  0  0  0  0  0
    5.0917    1.0613    2.0013 C   0  0  0  0  0  0  0  0  0  0  0  0
    3.1713    2.3042    0.6325 C   0  0  0  0  0  0  0  0  0  0  0  0
   -2.5798   -3.0937   -0.9004 C   0  0  0  0  0  0  0  0  0  0  0  0
   -5.9100   -2.7620   -2.8888 O   0  0  0  0  0  0  0  0  0  0  0  0
   -5.8593   -0.5304   -2.9842 O   0  0  0  0  0  0  0  0  0  0  0  0
   -1.1016    0.0471   -0.8514 N   0  0  0  0  0  0  0  0  0  0  0  0
   -1.6796   -2.1389   -0.6551 N   0  0  0  0  0  0  0  0  0  0  0  0
   -3.7496   -2.9583   -1.5247 N   0  0  0  0  0  0  0  0  0  0  0  0
   -7.3133   -2.3325   -4.3309 H   0  0  0  0  0  0  0  0  0  0  0  0
   -7.9087   -2.3190   -2.6884 H   0  0  0  0  0  0  0  0  0  0  0  0
   -7.5606   -3.8379   -3.4795 H   0  0  0  0  0  0  0  0  0  0  0  0
   -3.4234    0.3097   -2.0817 H   0  0  0  0  0  0  0  0  0  0  0  0
   -1.3691    0.9661   -1.0616 H   0  0  0  0  0  0  0  0  0  0  0  0
    0.7699   -0.8388   -0.9204 H   0  0  0  0  0  0  0  0  0  0  0  0
    0.1588   -0.5312    0.6877 H   0  0  0  0  0  0  0  0  0  0  0  0
    0.4928    1.8579    0.3442 H   0  0  0  0  0  0  0  0  0  0  0  0
    1.1358    1.5301   -1.2474 H   0  0  0  0  0  0  0  0  0  0  0  0
    2.9860    0.2778   -0.2332 H   0  0  0  0  0  0  0  0  0  0  0  0
    1.5983    1.0938    2.3949 H   0  0  0  0  0  0  0  0  0  0  0  0
    2.6376   -0.2889    2.1455 H   0  0  0  0  0  0  0  0  0  0  0  0
    3.1935    2.5524    3.8616 H   0  0  0  0  0  0  0  0  0  0  0  0
    4.4052    3.4361    2.9644 H   0  0  0  0  0  0  0  0  0  0  0  0
    4.6740    0.5923    4.1217 H   0  0  0  0  0  0  0  0  0  0  0  0
    5.9554    1.7621    3.9127 H   0  0  0  0  0  0  0  0  0  0  0  0
    5.8322    1.6026    1.4503 H   0  0  0  0  0  0  0  0  0  0  0  0
    5.1649    0.0193    1.7697 H   0  0  0  0  0  0  0  0  0  0  0  0
    2.5360    3.1513    0.7865 H   0  0  0  0  0  0  0  0  0  0  0  0
    3.9336    2.5534   -0.0758 H   0  0  0  0  0  0  0  0  0  0  0  0
   -2.3418   -4.0498   -0.5674 H   0  0  0  0  0  0  0  0  0  0  0  0
  1 16  1  0  0  0  0
  1 21  1  0  0  0  0
  1 22  1  0  0  0  0
  1 23  1  0  0  0  0
  2 16  1  0  0  0  0
  2  3  1  0  0  0  0
  2 17  2  0  0  0  0
  3 20  1  0  0  0  0
  3  4  2  0  0  0  0
  4  5  1  0  0  0  0
  4 24  1  0  0  0  0
  5 18  1  0  0  0  0
  5 19  2  0  0  0  0
  6 18  1  0  0  0  0
  6  7  1  0  0  0  0
  6 26  1  0  0  0  0
  6 27  1  0  0  0  0
  7  8  1  0  0  0  0
  7 28  1  0  0  0  0
  7 29  1  0  0  0  0
  8  9  1  0  0  0  0
  8 14  1  0  0  0  0
  8 30  1  0  0  0  0
  9 10  1  0  0  0  0
  9 31  1  0  0  0  0
  9 32  1  0  0  0  0
 10 11  1  0  0  0  0
 10 13  1  0  0  0  0
 10 14  1  0  0  0  0
 11 12  1  0  0  0  0
 11 33  1  0  0  0  0
 11 34  1  0  0  0  0
 12 13  1  0  0  0  0
 12 35  1  0  0  0  0
 12 36  1  0  0  0  0
 13 37  1  0  0  0  0
 13 38  1  0  0  0  0
 14 39  1  0  0  0  0
 14 40  1  0  0  0  0
 15 19  1  0  0  0  0
 15 41  1  0  0  0  0
 15 20  2  0  0  0  0
 18 25  1  0  0  0  0
M  END
>  <score>
0.43884652853012085

$$$$
PV-004074719457
 OpenBabel08202115463D

 52 53  0  0  0  0  0  0  0  0999 V2000
   -2.3112    2.8953   -0.4029 C   0  0  0  0  0  0  0  0  0  0  0  0
   -1.8596    1.8425    0.5832 C   0  0  0  0  0  0  0  0  0  0  0  0
    0.5250    1.3233    0.0396 C   0  0  0  0  0  0  0  0  0  0  0  0
    1.2506    0.6134    1.1594 C   0  0  0  0  0  0  0  0  0  0  0  0
    3.2839    1.8730    1.8211 C   0  0  0  0  0  0  0  0  0  0  0  0
    4.8098    1.8680    1.7636 C   0  0  1  0  0  0  0  0  0  0  0  0
    5.3282    2.2197    0.3584 C   0  0  0  0  0  0  0  0  0  0  0  0
    5.7513    2.2922    2.8469 C   0  0  0  0  0  0  0  0  0  0  0  0
    5.6630    0.8496    2.4592 C   0  0  1  0  0  0  0  0  0  0  0  0
    5.0972   -0.3045    3.2766 C   0  0  0  0  0  0  0  0  0  0  0  0
   -1.3017   -0.2117   -0.6847 C   0  0  0  0  0  0  0  0  0  0  0  0
   -2.7721   -0.4346   -0.9127 C   0  0  0  0  0  0  0  0  0  0  0  0
   -3.0621   -1.6183   -1.8324 C   0  0  1  0  0  0  0  0  0  0  0  0
   -3.2080   -2.9811   -1.1077 C   0  0  0  0  0  0  0  0  0  0  0  0
   -4.5134   -3.2719   -1.9062 C   0  0  1  0  0  0  0  0  0  0  0  0
   -5.5105   -4.4375   -3.7776 C   0  0  0  0  0  0  0  0  0  0  0  0
   -4.5569   -1.7667   -2.2516 C   0  0  0  0  0  0  0  0  0  0  0  0
   -0.8869    0.9453   -0.0431 N   0  0  0  0  0  0  0  0  0  0  0  0
    2.6898    0.8818    1.1549 N   0  0  0  0  0  0  0  0  0  0  0  0
    2.6784    2.6989    2.5014 O   0  0  0  0  0  0  0  0  0  0  0  0
   -0.4562   -1.0142   -1.0447 O   0  0  0  0  0  0  0  0  0  0  0  0
   -4.3433   -4.1381   -3.0328 O   0  0  0  0  0  0  0  0  0  0  0  0
    6.0508   -0.9671    3.9333 F   0  0  0  0  0  0  0  0  0  0  0  0
    4.4627   -1.1947    2.5119 F   0  0  0  0  0  0  0  0  0  0  0  0
    4.2198    0.1174    4.1896 F   0  0  0  0  0  0  0  0  0  0  0  0
   -2.9991    3.5609    0.0753 H   0  0  0  0  0  0  0  0  0  0  0  0
   -2.7918    2.4226   -1.2338 H   0  0  0  0  0  0  0  0  0  0  0  0
   -1.4623    3.4477   -0.7482 H   0  0  0  0  0  0  0  0  0  0  0  0
   -2.7070    1.2746    0.9061 H   0  0  0  0  0  0  0  0  0  0  0  0
   -1.4072    2.3201    1.4271 H   0  0  0  0  0  0  0  0  0  0  0  0
    0.5883    2.3786    0.2047 H   0  0  0  0  0  0  0  0  0  0  0  0
    1.0005    1.0777   -0.8870 H   0  0  0  0  0  0  0  0  0  0  0  0
    1.0980   -0.4403    1.0531 H   0  0  0  0  0  0  0  0  0  0  0  0
    0.8438    0.9408    2.0933 H   0  0  0  0  0  0  0  0  0  0  0  0
    3.2597    0.2884    0.6223 H   0  0  0  0  0  0  0  0  0  0  0  0
    4.9164    1.5371   -0.3554 H   0  0  0  0  0  0  0  0  0  0  0  0
    6.3958    2.1490    0.3443 H   0  0  0  0  0  0  0  0  0  0  0  0
    5.0330    3.2174    0.1090 H   0  0  0  0  0  0  0  0  0  0  0  0
    5.3678    2.6161    3.7918 H   0  0  0  0  0  0  0  0  0  0  0  0
    6.6260    2.8585    2.6034 H   0  0  0  0  0  0  0  0  0  0  0  0
    6.4930    0.5397    1.8593 H   0  0  0  0  0  0  0  0  0  0  0  0
   -3.1861    0.4484   -1.3531 H   0  0  0  0  0  0  0  0  0  0  0  0
   -3.2397   -0.6151    0.0326 H   0  0  0  0  0  0  0  0  0  0  0  0
   -2.3675   -1.6168   -2.6463 H   0  0  0  0  0  0  0  0  0  0  0  0
   -2.4126   -3.6684   -1.3074 H   0  0  0  0  0  0  0  0  0  0  0  0
   -3.3526   -2.8995   -0.0506 H   0  0  0  0  0  0  0  0  0  0  0  0
   -5.3329   -3.6168   -1.3109 H   0  0  0  0  0  0  0  0  0  0  0  0
   -6.2339   -4.8984   -3.1380 H   0  0  0  0  0  0  0  0  0  0  0  0
   -5.2625   -5.1061   -4.5753 H   0  0  0  0  0  0  0  0  0  0  0  0
   -5.9167   -3.5340   -4.1821 H   0  0  0  0  0  0  0  0  0  0  0  0
   -4.7415   -1.5625   -3.2856 H   0  0  0  0  0  0  0  0  0  0  0  0
   -5.2364   -1.2011   -1.6490 H   0  0  0  0  0  0  0  0  0  0  0  0
  1  2  1  0  0  0  0
  1 26  1  0  0  0  0
  1 27  1  0  0  0  0
  1 28  1  0  0  0  0
  2 18  1  0  0  0  0
  2 29  1  0  0  0  0
  2 30  1  0  0  0  0
  3 18  1  0  0  0  0
  3  4  1  0  0  0  0
  3 31  1  0  0  0  0
  3 32  1  0  0  0  0
  4 19  1  0  0  0  0
  4 33  1  0  0  0  0
  4 34  1  0  0  0  0
  5 19  1  0  0  0  0
  5 20  2  0  0  0  0
  6  5  1  1  0  0  0
  6  7  1  0  0  0  0
  6  8  1  0  0  0  0
  6  9  1  0  0  0  0
  7 36  1  0  0  0  0
  7 37  1  0  0  0  0
  7 38  1  0  0  0  0
  8  9  1  0  0  0  0
  8 39  1  0  0  0  0
  8 40  1  0  0  0  0
  9 10  1  0  0  0  0
  9 41  1  6  0  0  0
 10 23  1  0  0  0  0
 10 24  1  0  0  0  0
 10 25  1  0  0  0  0
 11 18  1  0  0  0  0
 11 12  1  0  0  0  0
 11 21  2  0  0  0  0
 12 13  1  0  0  0  0
 12 42  1  0  0  0  0
 12 43  1  0  0  0  0
 13 14  1  0  0  0  0
 13 17  1  0  0  0  0
 13 44  1  6  0  0  0
 14 15  1  0  0  0  0
 14 45  1  0  0  0  0
 14 46  1  0  0  0  0
 15 22  1  0  0  0  0
 15 17  1  0  0  0  0
 15 47  1  1  0  0  0
 16 22  1  0  0  0  0
 16 48  1  0  0  0  0
 16 49  1  0  0  0  0
 16 50  1  0  0  0  0
 17 51  1  0  0  0  0
 17 52  1  0  0  0  0
 19 35  1  0  0  0  0
M  END
>  <score>
0.43885713815689087

$$$$
PV-003705982084
 OpenBabel08202115463D

 49 51  0  0  0  0  0  0  0  0999 V2000
    7.7234   -0.3203    2.8456 C   0  0  0  0  0  0  0  0  0  0  0  0
    6.4122    0.1800    2.2708 C   0  0  0  0  0  0  0  0  0  0  0  0
    5.3679    0.4947    3.3338 C   0  0  0  0  0  0  0  0  0  0  0  0
    4.1286    1.1081    2.7724 C   0  0  0  0  0  0  0  0  0  0  0  0
    3.6998    2.4280    2.8076 C   0  0  0  0  0  0  0  0  0  0  0  0
    2.4714    2.4867    2.1334 C   0  0  0  0  0  0  0  0  0  0  0  0
    2.1663    1.2109    1.7005 C   0  0  0  0  0  0  0  0  0  0  0  0
    0.9834    0.7074    0.9371 C   0  0  0  0  0  0  0  0  0  0  0  0
   -1.0619    1.3459   -0.3054 C   0  0  2  0  0  0  0  0  0  0  0  0
   -1.7162    2.6574   -0.7271 C   0  0  0  0  0  0  0  0  0  0  0  0
   -0.8343    0.3482   -1.4695 C   0  0  0  0  0  0  0  0  0  0  0  0
   -1.8200   -0.6738   -0.7938 C   0  0  1  0  0  0  0  0  0  0  0  0
   -3.5132   -2.2007   -1.7041 C   0  0  0  0  0  0  0  0  0  0  0  0
   -4.6677   -2.3531   -2.5895 C   0  0  0  0  0  0  0  0  0  0  0  0
   -5.4414   -1.4213   -3.2537 C   0  0  0  0  0  0  0  0  0  0  0  0
   -6.4952   -2.1054   -3.8769 C   0  0  0  0  0  0  0  0  0  0  0  0
   -7.5095   -1.4771   -4.6652 C   0  0  0  0  0  0  0  0  0  0  0  0
   -6.3476   -3.4531   -3.5784 C   0  0  0  0  0  0  0  0  0  0  0  0
   -2.0476    0.3238    0.3703 C   0  0  0  0  0  0  0  0  0  0  0  0
    0.8212   -0.4877    0.7529 O   0  0  0  0  0  0  0  0  0  0  0  0
   -3.0364   -3.1750   -1.1128 O   0  0  0  0  0  0  0  0  0  0  0  0
    0.1342    1.6289    0.4799 N   0  0  0  0  0  0  0  0  0  0  0  0
   -3.0134   -0.9562   -1.5773 N   0  0  0  0  0  0  0  0  0  0  0  0
   -8.3086   -0.9355   -5.2901 N   0  0  0  0  0  0  0  0  0  0  0  0
   -5.2376   -3.5887   -2.8005 N   0  0  0  0  0  0  0  0  0  0  0  0
    3.1910    0.3828    2.1013 N   0  0  0  0  0  0  0  0  0  0  0  0
    8.3886   -0.5766    2.0476 H   0  0  0  0  0  0  0  0  0  0  0  0
    7.5412   -1.1848    3.4492 H   0  0  0  0  0  0  0  0  0  0  0  0
    8.1656    0.4474    3.4455 H   0  0  0  0  0  0  0  0  0  0  0  0
    6.0179   -0.5725    1.6202 H   0  0  0  0  0  0  0  0  0  0  0  0
    6.6053    1.0710    1.7107 H   0  0  0  0  0  0  0  0  0  0  0  0
    5.7952    1.1757    4.0399 H   0  0  0  0  0  0  0  0  0  0  0  0
    5.1027   -0.4151    3.8306 H   0  0  0  0  0  0  0  0  0  0  0  0
    4.1975    3.2259    3.2517 H   0  0  0  0  0  0  0  0  0  0  0  0
    1.8933    3.3385    1.9858 H   0  0  0  0  0  0  0  0  0  0  0  0
    0.3287    2.5668    0.6872 H   0  0  0  0  0  0  0  0  0  0  0  0
   -1.8224    3.2097    0.1832 H   0  0  0  0  0  0  0  0  0  0  0  0
   -2.6718    2.4766   -1.1731 H   0  0  0  0  0  0  0  0  0  0  0  0
   -1.0933    3.1851   -1.4188 H   0  0  0  0  0  0  0  0  0  0  0  0
   -1.1641    0.7072   -2.4220 H   0  0  0  0  0  0  0  0  0  0  0  0
    0.1724   -0.0053   -1.5501 H   0  0  0  0  0  0  0  0  0  0  0  0
   -1.3610   -1.5940   -0.4979 H   0  0  0  0  0  0  0  0  0  0  0  0
   -3.4694   -0.2152   -2.0283 H   0  0  0  0  0  0  0  0  0  0  0  0
   -5.2726   -0.3955   -3.2859 H   0  0  0  0  0  0  0  0  0  0  0  0
   -6.9731   -4.2222   -3.8927 H   0  0  0  0  0  0  0  0  0  0  0  0
   -4.8968   -4.4362   -2.4454 H   0  0  0  0  0  0  0  0  0  0  0  0
   -1.7178   -0.0353    1.3228 H   0  0  0  0  0  0  0  0  0  0  0  0
   -3.0543    0.6772    0.4509 H   0  0  0  0  0  0  0  0  0  0  0  0
    3.2384   -0.5809    1.9299 H   0  0  0  0  0  0  0  0  0  0  0  0
  1  2  1  0  0  0  0
  1 27  1  0  0  0  0
  1 28  1  0  0  0  0
  1 29  1  0  0  0  0
  2  3  1  0  0  0  0
  2 30  1  0  0  0  0
  2 31  1  0  0  0  0
  3  4  1  0  0  0  0
  3 32  1  0  0  0  0
  3 33  1  0  0  0  0
  4 26  1  0  0  0  0
  4  5  2  0  0  0  0
  5  6  1  0  0  0  0
  5 34  1  0  0  0  0
  6 35  1  0  0  0  0
  6  7  2  0  0  0  0
  7  8  1  0  0  0  0
  7 26  1  0  0  0  0
  8 22  1  0  0  0  0
  8 20  2  0  0  0  0
  9 22  1  1  0  0  0
  9 10  1  0  0  0  0
  9 11  1  0  0  0  0
  9 19  1  0  0  0  0
 10 37  1  0  0  0  0
 10 38  1  0  0  0  0
 10 39  1  0  0  0  0
 11 12  1  0  0  0  0
 11 40  1  0  0  0  0
 11 41  1  0  0  0  0
 12 23  1  0  0  0  0
 12 19  1  0  0  0  0
 12 42  1  1  0  0  0
 13 23  1  0  0  0  0
 13 14  1  0  0  0  0
 13 21  2  0  0  0  0
 14 25  1  0  0  0  0
 14 15  2  0  0  0  0
 15 16  1  0  0  0  0
 15 44  1  0  0  0  0
 16 17  1  0  0  0  0
 16 18  2  0  0  0  0
 17 24  3  0  0  0  0
 18 25  1  0  0  0  0
 18 45  1  0  0  0  0
 19 47  1  0  0  0  0
 19 48  1  0  0  0  0
 22 36  1  0  0  0  0
 23 43  1  0  0  0  0
 25 46  1  0  0  0  0
 26 49  1  0  0  0  0
M  END
>  <score>
0.43885952234268188

$$$$
PV-003478782303
 OpenBabel08202115463D

 42 44  0  0  0  0  0  0  0  0999 V2000
    5.2573    2.0432    5.3905 N   0  0  0  0  0  0  0  0  0  0  0  0
   -3.4678   -1.1401   -1.8107 N   0  0  0  0  0  0  0  0  0  0  0  0
   -3.6047   -1.5659   -0.5288 N   0  0  0  0  0  0  0  0  0  0  0  0
    5.4990    1.2747    4.5881 C   0  0  0  0  0  0  0  0  0  0  0  0
    5.8100    0.2913    3.6474 C   0  0  0  0  0  0  0  0  0  0  0  0
    4.3885    1.3043    1.4487 C   0  0  0  0  0  0  0  0  0  0  0  0
    3.9877    2.6243    1.5342 C   0  0  0  0  0  0  0  0  0  0  0  0
    2.7142    2.9898    1.1267 C   0  0  0  0  0  0  0  0  0  0  0  0
    1.8434    2.0333    0.6399 C   0  0  0  0  0  0  0  0  0  0  0  0
    0.4664    2.4061    0.3053 C   0  0  0  0  0  0  0  0  0  0  0  0
   -1.6893    1.6049   -0.1562 C   0  0  0  0  0  0  0  0  0  0  0  0
   -2.4095    0.3492   -0.6011 C   0  0  0  0  0  0  0  0  0  0  0  0
   -2.7508    0.0062   -1.8877 C   0  0  0  0  0  0  0  0  0  0  0  0
   -4.1590   -1.8659   -2.8687 C   0  0  0  0  0  0  0  0  0  0  0  0
   -5.6069   -2.2625   -2.5212 C   0  0  0  0  0  0  0  0  0  0  0  0
   -5.2348   -3.6893   -2.6756 C   0  0  0  0  0  0  0  0  0  0  0  0
   -3.7863   -3.3635   -2.9582 C   0  0  0  0  0  0  0  0  0  0  0  0
   -2.9640   -0.6527    0.2069 C   0  0  0  0  0  0  0  0  0  0  0  0
    2.2452    0.7094    0.5541 C   0  0  0  0  0  0  0  0  0  0  0  0
    3.5150    0.3451    0.9604 C   0  0  0  0  0  0  0  0  0  0  0  0
    6.0085    0.8410    1.9599 S   0  0  0  0  0  0  0  0  0  0  0  0
    6.4274   -0.2784    1.1749 O   0  0  0  0  0  0  0  0  0  0  0  0
    6.8300    2.0114    1.9751 O   0  0  0  0  0  0  0  0  0  0  0  0
    0.0037    3.5173    0.2834 O   0  0  0  0  0  0  0  0  0  0  0  0
   -0.2888    1.3001    0.0013 O   0  0  0  0  0  0  0  0  0  0  0  0
    5.0237   -0.4342    3.6630 H   0  0  0  0  0  0  0  0  0  0  0  0
    6.7272   -0.1695    3.9496 H   0  0  0  0  0  0  0  0  0  0  0  0
    4.6416    3.3433    1.9043 H   0  0  0  0  0  0  0  0  0  0  0  0
    2.4140    3.9837    1.1873 H   0  0  0  0  0  0  0  0  0  0  0  0
   -1.8107    2.3705   -0.8937 H   0  0  0  0  0  0  0  0  0  0  0  0
   -2.0923    1.9402    0.7765 H   0  0  0  0  0  0  0  0  0  0  0  0
   -2.5056    0.5269   -2.7539 H   0  0  0  0  0  0  0  0  0  0  0  0
   -4.0595   -1.3331   -3.7913 H   0  0  0  0  0  0  0  0  0  0  0  0
   -5.9107   -1.9925   -1.5314 H   0  0  0  0  0  0  0  0  0  0  0  0
   -6.3369   -1.9204   -3.2247 H   0  0  0  0  0  0  0  0  0  0  0  0
   -5.7293   -4.1715   -3.4928 H   0  0  0  0  0  0  0  0  0  0  0  0
   -5.3751   -4.2640   -1.7840 H   0  0  0  0  0  0  0  0  0  0  0  0
   -3.4403   -3.6781   -3.9206 H   0  0  0  0  0  0  0  0  0  0  0  0
   -3.1017   -3.6962   -2.2062 H   0  0  0  0  0  0  0  0  0  0  0  0
   -2.8869   -0.6817    1.2436 H   0  0  0  0  0  0  0  0  0  0  0  0
    1.5913   -0.0096    0.1840 H   0  0  0  0  0  0  0  0  0  0  0  0
    3.8152   -0.6488    0.8998 H   0  0  0  0  0  0  0  0  0  0  0  0
  2  3  1  0  0  0  0
  4  5  1  0  0  0  0
  4  1  3  0  0  0  0
  5 26  1  0  0  0  0
  5 27  1  0  0  0  0
  6 20  1  0  0  0  0
  6  7  2  0  0  0  0
  7  8  1  0  0  0  0
  7 28  1  0  0  0  0
  8 29  1  0  0  0  0
  8  9  2  0  0  0  0
  9 10  1  0  0  0  0
  9 19  1  0  0  0  0
 10 25  1  0  0  0  0
 10 24  2  0  0  0  0
 11 25  1  0  0  0  0
 11 12  1  0  0  0  0
 11 30  1  0  0  0  0
 11 31  1  0  0  0  0
 12 18  1  0  0  0  0
 12 13  2  0  0  0  0
 13  2  1  0  0  0  0
 13 32  1  0  0  0  0
 14  2  1  0  0  0  0
 14 15  1  0  0  0  0
 14 17  1  0  0  0  0
 14 33  1  0  0  0  0
 15 16  1  0  0  0  0
 15 34  1  0  0  0  0
 15 35  1  0  0  0  0
 16 17  1  0  0  0  0
 16 36  1  0  0  0  0
 16 37  1  0  0  0  0
 17 38  1  0  0  0  0
 17 39  1  0  0  0  0
 18 40  1  0  0  0  0
 18  3  2  0  0  0  0
 19 41  1  0  0  0  0
 19 20  2  0  0  0  0
 20 42  1  0  0  0  0
 21  5  1  0  0  0  0
 21  6  1  0  0  0  0
 21 22  2  0  0  0  0
 21 23  2  0  0  0  0
M  END
>  <score>
0.43900215625762939

$$$$
Z4591737495
 OpenBabel08202115463D

 48 49  0  0  0  0  0  0  0  0999 V2000
   -7.4690   -3.1695   -3.9671 C   0  0  0  0  0  0  0  0  0  0  0  0
   -6.5040   -1.6025   -2.4005 C   0  0  0  0  0  0  0  0  0  0  0  0
   -5.1784   -1.3332   -1.7094 C   0  0  0  0  0  0  0  0  0  0  0  0
   -2.4756   -0.6086   -1.8681 C   0  0  0  0  0  0  0  0  0  0  0  0
   -1.5679   -1.6515   -1.7698 C   0  0  0  0  0  0  0  0  0  0  0  0
   -0.4326   -1.5091   -0.9945 C   0  0  0  0  0  0  0  0  0  0  0  0
   -0.1992   -0.3212   -0.3193 C   0  0  0  0  0  0  0  0  0  0  0  0
    1.4269    0.8400    1.1478 C   0  0  0  0  0  0  0  0  0  0  0  0
    2.6827    0.6754    1.9815 C   0  0  1  0  0  0  0  0  0  0  0  0
    3.8513    0.3914    1.0710 C   0  0  0  0  0  0  0  0  0  0  0  0
    5.3013    1.4459    2.5479 C   0  0  0  0  0  0  0  0  0  0  0  0
    6.5767    1.2745    3.3569 C   0  0  0  0  0  0  0  0  0  0  0  0
    5.4674    2.6012    1.5797 C   0  0  0  0  0  0  0  0  0  0  0  0
    4.1587    1.7551    3.4910 C   0  0  0  0  0  0  0  0  0  0  0  0
   -1.1042    0.7189   -0.4172 C   0  0  0  0  0  0  0  0  0  0  0  0
   -2.2427    0.5758   -1.1948 C   0  0  0  0  0  0  0  0  0  0  0  0
   -6.3280   -2.7415   -3.2326 O   0  0  0  0  0  0  0  0  0  0  0  0
   -4.3037    0.4950   -3.3461 O   0  0  0  0  0  0  0  0  0  0  0  0
   -3.7059   -1.8483   -3.7901 O   0  0  0  0  0  0  0  0  0  0  0  0
    0.8339    1.9172    1.1061 O   0  0  0  0  0  0  0  0  0  0  0  0
    5.0601    0.2573    1.8103 O   0  0  0  0  0  0  0  0  0  0  0  0
   -3.9266   -0.7926   -2.8512 S   0  0  0  0  0  0  0  0  0  0  0  0
    0.9809   -0.2284    0.4549 N   0  0  0  0  0  0  0  0  0  0  0  0
    2.9200    1.8949    2.7384 N   0  0  0  0  0  0  0  0  0  0  0  0
   -3.3722    1.8800   -1.3227 Cl  0  0  0  0  0  0  0  0  0  0  0  0
   -7.2011   -3.9933   -4.5952 H   0  0  0  0  0  0  0  0  0  0  0  0
   -7.8272   -2.3623   -4.5714 H   0  0  0  0  0  0  0  0  0  0  0  0
   -8.2367   -3.4746   -3.2871 H   0  0  0  0  0  0  0  0  0  0  0  0
   -7.2631   -1.7963   -1.6718 H   0  0  0  0  0  0  0  0  0  0  0  0
   -6.7852   -0.7572   -2.9932 H   0  0  0  0  0  0  0  0  0  0  0  0
   -4.8473   -2.2336   -1.2355 H   0  0  0  0  0  0  0  0  0  0  0  0
   -5.3228   -0.5729   -0.9705 H   0  0  0  0  0  0  0  0  0  0  0  0
   -1.7411   -2.5413   -2.2796 H   0  0  0  0  0  0  0  0  0  0  0  0
    0.2464   -2.2931   -0.9176 H   0  0  0  0  0  0  0  0  0  0  0  0
    1.5391   -1.0330    0.4924 H   0  0  0  0  0  0  0  0  0  0  0  0
    2.5564   -0.1425    2.6598 H   0  0  0  0  0  0  0  0  0  0  0  0
    3.6655   -0.5178    0.5383 H   0  0  0  0  0  0  0  0  0  0  0  0
    3.9555    1.1979    0.3755 H   0  0  0  0  0  0  0  0  0  0  0  0
    6.4613    0.4563    4.0366 H   0  0  0  0  0  0  0  0  0  0  0  0
    6.7723    2.1707    3.9078 H   0  0  0  0  0  0  0  0  0  0  0  0
    7.3942    1.0761    2.6957 H   0  0  0  0  0  0  0  0  0  0  0  0
    4.5649    2.7303    1.0195 H   0  0  0  0  0  0  0  0  0  0  0  0
    6.2755    2.3921    0.9104 H   0  0  0  0  0  0  0  0  0  0  0  0
    5.6787    3.4966    2.1262 H   0  0  0  0  0  0  0  0  0  0  0  0
    4.3638    2.6683    4.0095 H   0  0  0  0  0  0  0  0  0  0  0  0
    4.0564    0.9583    4.1978 H   0  0  0  0  0  0  0  0  0  0  0  0
    2.1756    2.0471    3.3573 H   0  0  0  0  0  0  0  0  0  0  0  0
   -0.9309    1.6087    0.0926 H   0  0  0  0  0  0  0  0  0  0  0  0
  1 17  1  0  0  0  0
  1 26  1  0  0  0  0
  1 27  1  0  0  0  0
  1 28  1  0  0  0  0
  2 17  1  0  0  0  0
  2  3  1  0  0  0  0
  2 29  1  0  0  0  0
  2 30  1  0  0  0  0
  3 31  1  0  0  0  0
  3 32  1  0  0  0  0
  4 16  1  0  0  0  0
  4  5  2  0  0  0  0
  5  6  1  0  0  0  0
  5 33  1  0  0  0  0
  6 34  1  0  0  0  0
  6  7  2  0  0  0  0
  7 23  1  0  0  0  0
  7 15  1  0  0  0  0
  8 23  1  0  0  0  0
  8  9  1  0  0  0  0
  8 20  2  0  0  0  0
  9 10  1  0  0  0  0
  9 24  1  0  0  0  0
  9 36  1  1  0  0  0
 10 21  1  0  0  0  0
 10 37  1  0  0  0  0
 10 38  1  0  0  0  0
 11 21  1  0  0  0  0
 11 12  1  0  0  0  0
 11 13  1  0  0  0  0
 11 14  1  0  0  0  0
 12 39  1  0  0  0  0
 12 40  1  0  0  0  0
 12 41  1  0  0  0  0
 13 42  1  0  0  0  0
 13 43  1  0  0  0  0
 13 44  1  0  0  0  0
 14 24  1  0  0  0  0
 14 45  1  0  0  0  0
 14 46  1  0  0  0  0
 15 48  1  0  0  0  0
 15 16  2  0  0  0  0
 16 25  1  0  0  0  0
 22  3  1  0  0  0  0
 22  4  1  0  0  0  0
 22 18  2  0  0  0  0
 22 19  2  0  0  0  0
 23 35  1  0  0  0  0
 24 47  1  0  0  0  0
M  END
>  <score>
0.43912529945373535

$$$$
PV-002769536832
 OpenBabel08202115463D

 36 37  0  0  0  0  0  0  0  0999 V2000
    5.2349    0.0508    3.3791 C   0  0  0  0  0  0  0  0  0  0  0  0
    5.0570    1.4263    2.7573 C   0  0  0  0  0  0  0  0  0  0  0  0
    2.6640    1.6499    1.8786 C   0  0  0  0  0  0  0  0  0  0  0  0
    2.1513    1.7611    0.6080 C   0  0  0  0  0  0  0  0  0  0  0  0
    0.7276    1.9873    0.1571 C   0  0  0  0  0  0  0  0  0  0  0  0
    0.0012    0.7034   -0.1788 C   0  0  0  0  0  0  0  0  0  0  0  0
   -2.2217    0.0747   -1.2577 C   0  0  0  0  0  0  0  0  0  0  0  0
   -3.4311    0.4185   -1.8738 C   0  0  0  0  0  0  0  0  0  0  0  0
   -4.2240   -0.6040   -2.3252 C   0  0  0  0  0  0  0  0  0  0  0  0
   -3.7591   -1.9108   -2.1405 C   0  0  0  0  0  0  0  0  0  0  0  0
    3.2522    1.6185   -0.2474 C   0  0  0  0  0  0  0  0  0  0  0  0
    3.9975    1.4532    1.7474 N   0  0  0  0  0  0  0  0  0  0  0  0
   -1.3110    0.9998   -0.7590 N   0  0  0  0  0  0  0  0  0  0  0  0
   -5.4125   -3.8451   -1.2181 N   0  0  0  0  0  0  0  0  0  0  0  0
   -2.6079   -2.1938   -1.5377 N   0  0  0  0  0  0  0  0  0  0  0  0
   -1.8281   -1.1852   -1.0910 N   0  0  0  0  0  0  0  0  0  0  0  0
    4.3787    1.4242    0.4447 N   0  0  0  0  0  0  0  0  0  0  0  0
   -4.7397   -3.3212   -2.5949 S   0  0  0  0  0  0  0  0  0  0  0  0
   -3.8515   -4.3482   -3.0436 O   0  0  0  0  0  0  0  0  0  0  0  0
   -5.7582   -2.8423   -3.4770 O   0  0  0  0  0  0  0  0  0  0  0  0
    4.2839   -0.3239    3.6955 H   0  0  0  0  0  0  0  0  0  0  0  0
    5.8883    0.1231    4.2234 H   0  0  0  0  0  0  0  0  0  0  0  0
    5.6578   -0.6152    2.6562 H   0  0  0  0  0  0  0  0  0  0  0  0
    5.9780    1.7157    2.2958 H   0  0  0  0  0  0  0  0  0  0  0  0
    4.8108    2.1231    3.5311 H   0  0  0  0  0  0  0  0  0  0  0  0
    2.1304    1.7061    2.7695 H   0  0  0  0  0  0  0  0  0  0  0  0
    0.7408    2.6089   -0.7137 H   0  0  0  0  0  0  0  0  0  0  0  0
    0.1965    2.4837    0.9423 H   0  0  0  0  0  0  0  0  0  0  0  0
   -0.1293    0.1277    0.7137 H   0  0  0  0  0  0  0  0  0  0  0  0
    0.5805    0.1439   -0.8832 H   0  0  0  0  0  0  0  0  0  0  0  0
   -1.5729    1.9433   -0.7996 H   0  0  0  0  0  0  0  0  0  0  0  0
   -3.7169    1.4123   -1.9846 H   0  0  0  0  0  0  0  0  0  0  0  0
   -5.1365   -0.4160   -2.7873 H   0  0  0  0  0  0  0  0  0  0  0  0
   -5.0881   -4.6682   -0.7964 H   0  0  0  0  0  0  0  0  0  0  0  0
   -6.1440   -3.3392   -0.8066 H   0  0  0  0  0  0  0  0  0  0  0  0
    3.1994    1.6586   -1.2853 H   0  0  0  0  0  0  0  0  0  0  0  0
  1  2  1  0  0  0  0
  1 21  1  0  0  0  0
  1 22  1  0  0  0  0
  1 23  1  0  0  0  0
  2 12  1  0  0  0  0
  2 24  1  0  0  0  0
  2 25  1  0  0  0  0
  3 12  1  0  0  0  0
  3 26  1  0  0  0  0
  3  4  2  0  0  0  0
  4  5  1  0  0  0  0
  4 11  1  0  0  0  0
  5  6  1  0  0  0  0
  5 27  1  0  0  0  0
  5 28  1  0  0  0  0
  6 13  1  0  0  0  0
  6 29  1  0  0  0  0
  6 30  1  0  0  0  0
  7 13  1  0  0  0  0
  7 16  1  0  0  0  0
  7  8  2  0  0  0  0
  8  9  1  0  0  0  0
  8 32  1  0  0  0  0
  9 33  1  0  0  0  0
  9 10  2  0  0  0  0
 10 15  1  0  0  0  0
 11 36  1  0  0  0  0
 11 17  2  0  0  0  0
 12 17  1  0  0  0  0
 13 31  1  0  0  0  0
 14 34  1  0  0  0  0
 14 35  1  0  0  0  0
 15 16  2  0  0  0  0
 18 10  1  0  0  0  0
 18 14  1  0  0  0  0
 18 19  2  0  0  0  0
 18 20  2  0  0  0  0
M  END
>  <score>
0.43918919563293457

$$$$
PV-004043878940
 OpenBabel08202115463D

 51 54  0  0  0  0  0  0  0  0999 V2000
    4.5475    2.3724    5.0499 C   0  0  0  0  0  0  0  0  0  0  0  0
    4.5262    2.6220    3.5610 C   0  0  2  0  0  0  0  0  0  0  0  0
    6.3996    2.2838    2.1954 C   0  0  0  0  0  0  0  0  0  0  0  0
    5.7682    0.9272    2.4599 C   0  0  0  0  0  0  0  0  0  0  0  0
    4.3427    1.3141    2.8160 C   0  0  2  0  0  0  0  0  0  0  0  0
    3.4995    1.5098    1.5652 C   0  0  0  0  0  0  0  0  0  0  0  0
    1.3770    0.8930    0.5059 C   0  0  2  0  0  0  0  0  0  0  0  0
   -0.0268    0.4193    0.9241 C   0  0  0  0  0  0  0  0  0  0  0  0
   -0.1679   -0.1354   -0.4938 C   0  0  1  0  0  0  0  0  0  0  0  0
   -1.0415   -1.3569   -0.7817 C   0  0  0  0  0  0  0  0  0  0  0  0
   -2.1098   -0.3671   -1.2808 C   0  0  1  0  0  0  0  0  0  0  0  0
   -4.0630   -1.3464   -2.3955 C   0  0  0  0  0  0  0  0  0  0  0  0
   -4.6867   -1.7376   -3.7120 C   0  0  0  0  0  0  0  0  0  0  0  0
   -7.2189   -1.8792   -3.5210 C   0  0  0  0  0  0  0  0  0  0  0  0
   -8.0956   -2.9242   -3.3508 C   0  0  0  0  0  0  0  0  0  0  0  0
   -7.2929   -4.0711   -3.2820 C   0  0  0  0  0  0  0  0  0  0  0  0
   -0.9608    0.6180   -1.5624 C   0  0  0  0  0  0  0  0  0  0  0  0
    1.3600   -0.2221   -0.5553 C   0  0  0  0  0  0  0  0  0  0  0  0
    5.7855    3.1742    3.1338 O   0  0  0  0  0  0  0  0  0  0  0  0
    3.8246    2.3072    0.6865 O   0  0  0  0  0  0  0  0  0  0  0  0
   -4.6544   -1.5207   -1.3333 O   0  0  0  0  0  0  0  0  0  0  0  0
    3.7492    0.3502    3.6317 F   0  0  0  0  0  0  0  0  0  0  0  0
    2.3995    0.7411    1.5303 N   0  0  0  0  0  0  0  0  0  0  0  0
   -2.8430   -0.8068   -2.4689 N   0  0  0  0  0  0  0  0  0  0  0  0
   -5.9742   -2.4121   -3.5476 N   0  0  0  0  0  0  0  0  0  0  0  0
   -5.9981   -3.7609   -3.3953 N   0  0  0  0  0  0  0  0  0  0  0  0
    4.5450    3.3081    5.5690 H   0  0  0  0  0  0  0  0  0  0  0  0
    5.4299    1.8245    5.3069 H   0  0  0  0  0  0  0  0  0  0  0  0
    3.6825    1.8078    5.3290 H   0  0  0  0  0  0  0  0  0  0  0  0
    3.7297    3.2956    3.3231 H   0  0  0  0  0  0  0  0  0  0  0  0
    7.4569    2.2426    2.3543 H   0  0  0  0  0  0  0  0  0  0  0  0
    6.2011    2.6006    1.1928 H   0  0  0  0  0  0  0  0  0  0  0  0
    6.2502    0.4247    3.2724 H   0  0  0  0  0  0  0  0  0  0  0  0
    5.7976    0.3070    1.5885 H   0  0  0  0  0  0  0  0  0  0  0  0
    2.2809    0.0536    2.2186 H   0  0  0  0  0  0  0  0  0  0  0  0
    1.4134    1.8862    0.1095 H   0  0  0  0  0  0  0  0  0  0  0  0
   -0.7111    1.2046    1.1689 H   0  0  0  0  0  0  0  0  0  0  0  0
   -0.0391   -0.3193    1.6982 H   0  0  0  0  0  0  0  0  0  0  0  0
   -1.3220   -1.9218    0.0827 H   0  0  0  0  0  0  0  0  0  0  0  0
   -0.6568   -2.0174   -1.5305 H   0  0  0  0  0  0  0  0  0  0  0  0
   -2.8030   -0.0431   -0.5329 H   0  0  0  0  0  0  0  0  0  0  0  0
   -2.4244   -0.7017   -3.3487 H   0  0  0  0  0  0  0  0  0  0  0  0
   -4.0180   -2.3966   -4.2252 H   0  0  0  0  0  0  0  0  0  0  0  0
   -4.8355   -0.8536   -4.2963 H   0  0  0  0  0  0  0  0  0  0  0  0
   -7.4644   -0.8727   -3.6119 H   0  0  0  0  0  0  0  0  0  0  0  0
   -9.1324   -2.8744   -3.2868 H   0  0  0  0  0  0  0  0  0  0  0  0
   -7.6575   -5.0373   -3.1588 H   0  0  0  0  0  0  0  0  0  0  0  0
   -0.5515    0.5598   -2.5493 H   0  0  0  0  0  0  0  0  0  0  0  0
   -1.1764    1.6387   -1.3248 H   0  0  0  0  0  0  0  0  0  0  0  0
    1.7876    0.0486   -1.4981 H   0  0  0  0  0  0  0  0  0  0  0  0
    1.7702   -1.1560   -0.2320 H   0  0  0  0  0  0  0  0  0  0  0  0
  1  2  1  0  0  0  0
  1 27  1  0  0  0  0
  1 28  1  0  0  0  0
  1 29  1  0  0  0  0
  2 19  1  0  0  0  0
  2  5  1  0  0  0  0
  2 30  1  6  0  0  0
  3 19  1  0  0  0  0
  3  4  1  0  0  0  0
  3 31  1  0  0  0  0
  3 32  1  0  0  0  0
  4  5  1  0  0  0  0
  4 33  1  0  0  0  0
  4 34  1  0  0  0  0
  5 22  1  1  0  0  0
  5  6  1  0  0  0  0
  6 23  1  0  0  0  0
  6 20  2  0  0  0  0
  7 23  1  0  0  0  0
  7  8  1  0  0  0  0
  7 18  1  0  0  0  0
  7 36  1  6  0  0  0
  8 37  1  0  0  0  0
  8 38  1  0  0  0  0
  9  8  1  1  0  0  0
  9 10  1  0  0  0  0
  9 17  1  0  0  0  0
  9 18  1  0  0  0  0
 10 11  1  0  0  0  0
 10 39  1  0  0  0  0
 10 40  1  0  0  0  0
 11 24  1  0  0  0  0
 11 17  1  0  0  0  0
 11 41  1  1  0  0  0
 12 24  1  0  0  0  0
 12 13  1  0  0  0  0
 12 21  2  0  0  0  0
 13 25  1  0  0  0  0
 13 43  1  0  0  0  0
 13 44  1  0  0  0  0
 14 25  1  0  0  0  0
 14 45  1  0  0  0  0
 14 15  2  0  0  0  0
 15 16  1  0  0  0  0
 15 46  1  0  0  0  0
 16 47  1  0  0  0  0
 16 26  2  0  0  0  0
 17 48  1  0  0  0  0
 17 49  1  0  0  0  0
 18 50  1  0  0  0  0
 18 51  1  0  0  0  0
 23 35  1  0  0  0  0
 24 42  1  0  0  0  0
 25 26  1  0  0  0  0
M  END
>  <score>
0.43930131196975708

$$$$
PV-003911852864
 OpenBabel08202115463D

 50 51  0  0  0  0  0  0  0  0999 V2000
   -7.8787   -1.2969   -2.7440 C   0  0  0  0  0  0  0  0  0  0  0  0
   -6.5633   -2.0065   -2.8827 C   0  0  0  0  0  0  0  0  0  0  0  0
   -6.3482   -3.2566   -3.3794 C   0  0  0  0  0  0  0  0  0  0  0  0
   -4.4830   -2.4066   -2.6233 C   0  0  0  0  0  0  0  0  0  0  0  0
   -3.0291   -2.2661   -2.2597 C   0  0  0  0  0  0  0  0  0  0  0  0
   -2.7017   -0.9245   -1.6171 C   0  0  0  0  0  0  0  0  0  0  0  0
   -1.2521   -0.8096   -1.1876 C   0  0  0  0  0  0  0  0  0  0  0  0
   -1.7546    1.5499   -0.7907 C   0  0  0  0  0  0  0  0  0  0  0  0
    0.5125    0.6163   -0.3356 C   0  0  0  0  0  0  0  0  0  0  0  0
    0.6388    0.5585    1.1695 C   0  0  0  0  0  0  0  0  0  0  0  0
    2.7848   -0.5606    1.7352 C   0  0  0  0  0  0  0  0  0  0  0  0
    2.5401    1.8384    2.0628 C   0  0  0  0  0  0  0  0  0  0  0  0
    3.9753    1.8798    2.4056 C   0  0  0  0  0  0  0  0  0  0  0  0
    5.0240    1.8879    1.5026 C   0  0  0  0  0  0  0  0  0  0  0  0
    6.3170    1.9243    1.9869 C   0  0  0  0  0  0  0  0  0  0  0  0
    6.5131    1.9508    3.3553 C   0  0  0  0  0  0  0  0  0  0  0  0
    5.4083    1.9439    4.1853 C   0  0  0  0  0  0  0  0  0  0  0  0
   -5.0103   -3.5039   -3.2053 N   0  0  0  0  0  0  0  0  0  0  0  0
   -0.8609    0.3974   -0.7927 N   0  0  0  0  0  0  0  0  0  0  0  0
    2.0021    0.6660    1.6701 N   0  0  0  0  0  0  0  0  0  0  0  0
    7.3812    1.9326    1.0551 N   0  0  0  0  0  0  0  0  0  0  0  0
    4.1506    1.9097    3.7344 N   0  0  0  0  0  0  0  0  0  0  0  0
   -5.3898   -1.4710   -2.4100 N   0  0  0  0  0  0  0  0  0  0  0  0
   -0.5017   -1.7817   -1.2100 O   0  0  0  0  0  0  0  0  0  0  0  0
    1.8483    2.8593    2.1351 O   0  0  0  0  0  0  0  0  0  0  0  0
    5.5438    2.0715    5.5010 O   0  0  0  0  0  0  0  0  0  0  0  0
   -8.5720   -1.6867   -3.4598 H   0  0  0  0  0  0  0  0  0  0  0  0
   -7.7390   -0.2502   -2.9165 H   0  0  0  0  0  0  0  0  0  0  0  0
   -8.2629   -1.4480   -1.7569 H   0  0  0  0  0  0  0  0  0  0  0  0
   -7.0534   -3.8926   -3.8034 H   0  0  0  0  0  0  0  0  0  0  0  0
   -4.5298   -4.3206   -3.4555 H   0  0  0  0  0  0  0  0  0  0  0  0
   -2.4439   -2.3692   -3.1495 H   0  0  0  0  0  0  0  0  0  0  0  0
   -2.7733   -3.0447   -1.5717 H   0  0  0  0  0  0  0  0  0  0  0  0
   -3.3233   -0.7991   -0.7552 H   0  0  0  0  0  0  0  0  0  0  0  0
   -2.9101   -0.1486   -2.3237 H   0  0  0  0  0  0  0  0  0  0  0  0
   -1.3037    2.3505   -0.2425 H   0  0  0  0  0  0  0  0  0  0  0  0
   -2.6823    1.2807   -0.3303 H   0  0  0  0  0  0  0  0  0  0  0  0
   -1.9336    1.8639   -1.7978 H   0  0  0  0  0  0  0  0  0  0  0  0
    0.8357    1.5800   -0.6700 H   0  0  0  0  0  0  0  0  0  0  0  0
    1.1400   -0.1385   -0.7615 H   0  0  0  0  0  0  0  0  0  0  0  0
    0.2342   -0.3745    1.5023 H   0  0  0  0  0  0  0  0  0  0  0  0
    0.0675    1.3633    1.5829 H   0  0  0  0  0  0  0  0  0  0  0  0
    3.4128   -0.6297    0.8717 H   0  0  0  0  0  0  0  0  0  0  0  0
    2.1256   -1.4029    1.7649 H   0  0  0  0  0  0  0  0  0  0  0  0
    3.3910   -0.5502    2.6169 H   0  0  0  0  0  0  0  0  0  0  0  0
    4.8420    1.8670    0.4789 H   0  0  0  0  0  0  0  0  0  0  0  0
    7.1968    1.8157    0.0997 H   0  0  0  0  0  0  0  0  0  0  0  0
    8.3028    2.0553    1.3649 H   0  0  0  0  0  0  0  0  0  0  0  0
    7.4740    1.9754    3.7525 H   0  0  0  0  0  0  0  0  0  0  0  0
    5.6388    1.2031    5.8991 H   0  0  0  0  0  0  0  0  0  0  0  0
  1  2  1  0  0  0  0
  1 27  1  0  0  0  0
  1 28  1  0  0  0  0
  1 29  1  0  0  0  0
  2 23  1  0  0  0  0
  2  3  2  0  0  0  0
  3 18  1  0  0  0  0
  3 30  1  0  0  0  0
  4 18  1  0  0  0  0
  4  5  1  0  0  0  0
  4 23  2  0  0  0  0
  5  6  1  0  0  0  0
  5 32  1  0  0  0  0
  5 33  1  0  0  0  0
  6  7  1  0  0  0  0
  6 34  1  0  0  0  0
  6 35  1  0  0  0  0
  7 19  1  0  0  0  0
  7 24  2  0  0  0  0
  8 19  1  0  0  0  0
  8 36  1  0  0  0  0
  8 37  1  0  0  0  0
  8 38  1  0  0  0  0
  9 19  1  0  0  0  0
  9 10  1  0  0  0  0
  9 39  1  0  0  0  0
  9 40  1  0  0  0  0
 10 20  1  0  0  0  0
 10 41  1  0  0  0  0
 10 42  1  0  0  0  0
 11 20  1  0  0  0  0
 11 43  1  0  0  0  0
 11 44  1  0  0  0  0
 11 45  1  0  0  0  0
 12 20  1  0  0  0  0
 12 13  1  0  0  0  0
 12 25  2  0  0  0  0
 13 22  1  0  0  0  0
 13 14  2  0  0  0  0
 14 15  1  0  0  0  0
 14 46  1  0  0  0  0
 15 21  1  0  0  0  0
 15 16  2  0  0  0  0
 16 17  1  0  0  0  0
 16 49  1  0  0  0  0
 17 26  1  0  0  0  0
 17 22  2  0  0  0  0
 18 31  1  0  0  0  0
 21 47  1  0  0  0  0
 21 48  1  0  0  0  0
 26 50  1  0  0  0  0
M  END
>  <score>
0.43931472301483154

$$$$
PV-002766197345
 OpenBabel08202115463D

 52 53  0  0  0  0  0  0  0  0999 V2000
    0.8998    0.9731   -1.7592 C   0  0  0  0  0  0  0  0  0  0  0  0
    0.2240    1.0147   -0.3945 C   0  0  0  0  0  0  0  0  0  0  0  0
   -0.3668    2.3991   -0.1540 C   0  0  0  0  0  0  0  0  0  0  0  0
    1.3002    0.7246    0.6450 C   0  0  0  0  0  0  0  0  0  0  0  0
    2.3500    1.8191    0.7470 C   0  0  0  0  0  0  0  0  0  0  0  0
    3.5193    1.4369    1.6204 C   0  0  0  0  0  0  0  0  0  0  0  0
    5.5407    2.2880    2.6438 C   0  0  0  0  0  0  0  0  0  0  0  0
    6.3034    1.1341    2.0488 C   0  0  0  0  0  0  0  0  0  0  0  0
    4.9985    1.9294    4.0178 C   0  0  0  0  0  0  0  0  0  0  0  0
    6.3819    3.5401    2.6570 C   0  0  0  0  0  0  0  0  0  0  0  0
   -1.8967    0.0212   -1.1310 C   0  0  0  0  0  0  0  0  0  0  0  0
   -2.7966   -1.1306   -1.0497 C   0  0  0  0  0  0  0  0  0  0  0  0
   -4.3774   -2.5531   -1.4609 C   0  0  0  0  0  0  0  0  0  0  0  0
   -5.5285   -3.2893   -2.0341 C   0  0  0  0  0  0  0  0  0  0  0  0
   -6.4125   -3.8737   -1.1406 C   0  0  0  0  0  0  0  0  0  0  0  0
   -7.5041   -4.5794   -1.6103 C   0  0  0  0  0  0  0  0  0  0  0  0
   -7.7179   -4.6983   -2.9747 C   0  0  0  0  0  0  0  0  0  0  0  0
   -6.8364   -4.1155   -3.8655 C   0  0  0  0  0  0  0  0  0  0  0  0
   -5.7415   -3.4077   -3.3946 C   0  0  0  0  0  0  0  0  0  0  0  0
    3.6481    0.3897    2.1863 O   0  0  0  0  0  0  0  0  0  0  0  0
    4.4223    2.4439    1.6863 O   0  0  0  0  0  0  0  0  0  0  0  0
   -2.1399    0.9579   -1.8894 O   0  0  0  0  0  0  0  0  0  0  0  0
   -0.8078   -0.0101   -0.3385 N   0  0  0  0  0  0  0  0  0  0  0  0
   -2.7241   -2.0684   -0.1367 N   0  0  0  0  0  0  0  0  0  0  0  0
   -3.7365   -2.9805   -0.4037 N   0  0  0  0  0  0  0  0  0  0  0  0
   -3.8315   -1.3960   -1.9012 N   0  0  0  0  0  0  0  0  0  0  0  0
    1.4366    0.0535   -1.8641 H   0  0  0  0  0  0  0  0  0  0  0  0
    1.5799    1.7947   -1.8453 H   0  0  0  0  0  0  0  0  0  0  0  0
    0.1575    1.0420   -2.5268 H   0  0  0  0  0  0  0  0  0  0  0  0
   -0.9596    2.6858   -0.9974 H   0  0  0  0  0  0  0  0  0  0  0  0
    0.4250    3.1058   -0.0181 H   0  0  0  0  0  0  0  0  0  0  0  0
   -0.9806    2.3774    0.7222 H   0  0  0  0  0  0  0  0  0  0  0  0
    1.7885   -0.1903    0.3816 H   0  0  0  0  0  0  0  0  0  0  0  0
    0.8294    0.6161    1.5997 H   0  0  0  0  0  0  0  0  0  0  0  0
    1.8908    2.6944    1.1566 H   0  0  0  0  0  0  0  0  0  0  0  0
    2.7148    2.0337   -0.2357 H   0  0  0  0  0  0  0  0  0  0  0  0
    7.0696    0.8241    2.7283 H   0  0  0  0  0  0  0  0  0  0  0  0
    6.7486    1.4396    1.1250 H   0  0  0  0  0  0  0  0  0  0  0  0
    5.6341    0.3186    1.8703 H   0  0  0  0  0  0  0  0  0  0  0  0
    5.8129    1.7861    4.6969 H   0  0  0  0  0  0  0  0  0  0  0  0
    4.4270    1.0273    3.9511 H   0  0  0  0  0  0  0  0  0  0  0  0
    4.3740    2.7225    4.3726 H   0  0  0  0  0  0  0  0  0  0  0  0
    7.3941    3.2879    2.8950 H   0  0  0  0  0  0  0  0  0  0  0  0
    6.0010    4.2176    3.3924 H   0  0  0  0  0  0  0  0  0  0  0  0
    6.3472    4.0030    1.6929 H   0  0  0  0  0  0  0  0  0  0  0  0
   -0.7070   -0.7485    0.2978 H   0  0  0  0  0  0  0  0  0  0  0  0
   -6.2544   -3.7811   -0.1168 H   0  0  0  0  0  0  0  0  0  0  0  0
   -8.1652   -5.0212   -0.9399 H   0  0  0  0  0  0  0  0  0  0  0  0
   -8.5416   -5.2259   -3.3280 H   0  0  0  0  0  0  0  0  0  0  0  0
   -6.9945   -4.2081   -4.8893 H   0  0  0  0  0  0  0  0  0  0  0  0
   -5.0804   -2.9659   -4.0649 H   0  0  0  0  0  0  0  0  0  0  0  0
   -4.1185   -0.8603   -2.6701 H   0  0  0  0  0  0  0  0  0  0  0  0
  1  2  1  0  0  0  0
  1 27  1  0  0  0  0
  1 28  1  0  0  0  0
  1 29  1  0  0  0  0
  2  3  1  0  0  0  0
  2  4  1  0  0  0  0
  2 23  1  0  0  0  0
  3 30  1  0  0  0  0
  3 31  1  0  0  0  0
  3 32  1  0  0  0  0
  4  5  1  0  0  0  0
  4 33  1  0  0  0  0
  4 34  1  0  0  0  0
  5  6  1  0  0  0  0
  5 35  1  0  0  0  0
  5 36  1  0  0  0  0
  6 21  1  0  0  0  0
  6 20  2  0  0  0  0
  7 21  1  0  0  0  0
  7  8  1  0  0  0  0
  7  9  1  0  0  0  0
  7 10  1  0  0  0  0
  8 37  1  0  0  0  0
  8 38  1  0  0  0  0
  8 39  1  0  0  0  0
  9 40  1  0  0  0  0
  9 41  1  0  0  0  0
  9 42  1  0  0  0  0
 10 43  1  0  0  0  0
 10 44  1  0  0  0  0
 10 45  1  0  0  0  0
 11 23  1  0  0  0  0
 11 12  1  0  0  0  0
 11 22  2  0  0  0  0
 12 26  1  0  0  0  0
 12 24  2  0  0  0  0
 13 14  1  0  0  0  0
 13 26  1  0  0  0  0
 13 25  2  0  0  0  0
 14 19  1  0  0  0  0
 14 15  2  0  0  0  0
 15 16  1  0  0  0  0
 15 47  1  0  0  0  0
 16 48  1  0  0  0  0
 16 17  2  0  0  0  0
 17 18  1  0  0  0  0
 17 49  1  0  0  0  0
 18 50  1  0  0  0  0
 18 19  2  0  0  0  0
 19 51  1  0  0  0  0
 23 46  1  0  0  0  0
 24 25  1  0  0  0  0
 26 52  1  0  0  0  0
M  END
>  <score>
0.4393317699432373

$$$$
PV-002981875489
 OpenBabel08202115463D

 44 46  0  0  0  0  0  0  0  0999 V2000
    5.4229    2.8690    3.4417 C   0  0  0  0  0  0  0  0  0  0  0  0
    4.3961    1.7771    3.1184 C   0  0  0  0  0  0  0  0  0  0  0  0
    3.1057    2.1123    3.8762 C   0  0  0  0  0  0  0  0  0  0  0  0
    4.9335    0.4184    3.5827 C   0  0  0  0  0  0  0  0  0  0  0  0
    4.1083    1.7803    1.6228 C   0  0  0  0  0  0  0  0  0  0  0  0
    2.9706    0.9043    1.2478 C   0  0  0  0  0  0  0  0  0  0  0  0
    1.8237    1.0705    0.5661 C   0  0  0  0  0  0  0  0  0  0  0  0
    1.1958   -0.2027    0.5831 C   0  0  0  0  0  0  0  0  0  0  0  0
   -0.7675    0.2931   -0.8350 C   0  0  0  0  0  0  0  0  0  0  0  0
   -1.9469   -0.3144   -1.4940 C   0  0  0  0  0  0  0  0  0  0  0  0
   -2.7869    0.4631   -2.2695 C   0  0  0  0  0  0  0  0  0  0  0  0
   -3.8756   -0.1355   -2.8731 C   0  0  0  0  0  0  0  0  0  0  0  0
   -4.0834   -1.4897   -2.6778 C   0  0  0  0  0  0  0  0  0  0  0  0
   -5.4019   -3.5108   -3.2148 C   0  0  0  0  0  0  0  0  0  0  0  0
   -6.4163   -3.8253   -4.1087 C   0  0  0  0  0  0  0  0  0  0  0  0
   -6.8204   -2.6295   -4.7201 C   0  0  0  0  0  0  0  0  0  0  0  0
   -6.0516   -1.6077   -4.1977 C   0  0  0  0  0  0  0  0  0  0  0  0
   -2.2310   -1.6590   -1.3494 C   0  0  0  0  0  0  0  0  0  0  0  0
   -0.0432   -0.4965   -0.0145 N   0  0  0  0  0  0  0  0  0  0  0  0
   -5.1905   -2.1667   -3.2800 N   0  0  0  0  0  0  0  0  0  0  0  0
   -3.2798   -2.2546   -1.9252 N   0  0  0  0  0  0  0  0  0  0  0  0
    1.9219   -1.0835    1.2328 N   0  0  0  0  0  0  0  0  0  0  0  0
   -0.4340    1.4531   -1.0982 O   0  0  0  0  0  0  0  0  0  0  0  0
    3.0649   -0.3807    1.6718 O   0  0  0  0  0  0  0  0  0  0  0  0
    5.1055    3.7962    3.0124 H   0  0  0  0  0  0  0  0  0  0  0  0
    6.3742    2.5952    3.0354 H   0  0  0  0  0  0  0  0  0  0  0  0
    5.5057    2.9773    4.5030 H   0  0  0  0  0  0  0  0  0  0  0  0
    2.6386    2.9636    3.4269 H   0  0  0  0  0  0  0  0  0  0  0  0
    3.3387    2.3310    4.8973 H   0  0  0  0  0  0  0  0  0  0  0  0
    2.4396    1.2760    3.8330 H   0  0  0  0  0  0  0  0  0  0  0  0
    5.7655    0.1359    2.9721 H   0  0  0  0  0  0  0  0  0  0  0  0
    4.1621   -0.3182    3.4971 H   0  0  0  0  0  0  0  0  0  0  0  0
    5.2480    0.4893    4.6030 H   0  0  0  0  0  0  0  0  0  0  0  0
    4.9827    1.4424    1.1070 H   0  0  0  0  0  0  0  0  0  0  0  0
    3.8807    2.7816    1.3219 H   0  0  0  0  0  0  0  0  0  0  0  0
    1.4725    1.9431    0.1224 H   0  0  0  0  0  0  0  0  0  0  0  0
   -0.4244   -1.3762    0.1883 H   0  0  0  0  0  0  0  0  0  0  0  0
   -2.6027    1.4788   -2.3959 H   0  0  0  0  0  0  0  0  0  0  0  0
   -4.5267    0.4209   -3.4630 H   0  0  0  0  0  0  0  0  0  0  0  0
   -4.8938   -4.1820   -2.6040 H   0  0  0  0  0  0  0  0  0  0  0  0
   -6.8048   -4.7726   -4.2913 H   0  0  0  0  0  0  0  0  0  0  0  0
   -7.5658   -2.5299   -5.4385 H   0  0  0  0  0  0  0  0  0  0  0  0
   -6.1121   -0.6009   -4.4510 H   0  0  0  0  0  0  0  0  0  0  0  0
   -1.5961   -2.2371   -0.7626 H   0  0  0  0  0  0  0  0  0  0  0  0
  1  2  1  0  0  0  0
  1 25  1  0  0  0  0
  1 26  1  0  0  0  0
  1 27  1  0  0  0  0
  2  3  1  0  0  0  0
  2  4  1  0  0  0  0
  2  5  1  0  0  0  0
  3 28  1  0  0  0  0
  3 29  1  0  0  0  0
  3 30  1  0  0  0  0
  4 31  1  0  0  0  0
  4 32  1  0  0  0  0
  4 33  1  0  0  0  0
  5  6  1  0  0  0  0
  5 34  1  0  0  0  0
  5 35  1  0  0  0  0
  6 24  1  0  0  0  0
  6  7  2  0  0  0  0
  7  8  1  0  0  0  0
  7 36  1  0  0  0  0
  8 19  1  0  0  0  0
  8 22  2  0  0  0  0
  9 19  1  0  0  0  0
  9 10  1  0  0  0  0
  9 23  2  0  0  0  0
 10 18  1  0  0  0  0
 10 11  2  0  0  0  0
 11 12  1  0  0  0  0
 11 38  1  0  0  0  0
 12 39  1  0  0  0  0
 12 13  2  0  0  0  0
 13 20  1  0  0  0  0
 13 21  1  0  0  0  0
 14 20  1  0  0  0  0
 14 40  1  0  0  0  0
 14 15  2  0  0  0  0
 15 16  1  0  0  0  0
 15 41  1  0  0  0  0
 16 42  1  0  0  0  0
 16 17  2  0  0  0  0
 17 20  1  0  0  0  0
 17 43  1  0  0  0  0
 18 44  1  0  0  0  0
 18 21  2  0  0  0  0
 19 37  1  0  0  0  0
 22 24  1  0  0  0  0
M  END
>  <score>
0.43933188915252686

$$$$
Z4272839692
 OpenBabel08202115463D

 54 53  0  0  0  0  0  0  0  0999 V2000
   -3.4653   -3.8692   -1.8006 C   0  0  0  0  0  0  0  0  0  0  0  0
   -3.9811   -2.4346   -1.6532 C   0  0  1  0  0  0  0  0  0  0  0  0
   -2.9121   -1.4237   -2.0351 C   0  0  0  0  0  0  0  0  0  0  0  0
   -0.8425    1.2573   -1.1777 C   0  0  0  0  0  0  0  0  0  0  0  0
   -2.3321    1.5989   -1.0818 C   0  0  0  0  0  0  0  0  0  0  0  0
   -0.2403    1.9522   -2.4019 C   0  0  0  0  0  0  0  0  0  0  0  0
   -0.1143    1.7310    0.0753 C   0  0  0  0  0  0  0  0  0  0  0  0
    1.3257    1.2508    0.1532 C   0  0  0  0  0  0  0  0  0  0  0  0
    3.2948    1.3351    1.6720 C   0  0  0  0  0  0  0  0  0  0  0  0
    5.0432    1.4713    3.3400 C   0  0  0  0  0  0  0  0  0  0  0  0
    5.0170   -0.0419    3.3250 C   0  0  0  0  0  0  0  0  0  0  0  0
    5.2604    1.9965    4.7497 C   0  0  0  0  0  0  0  0  0  0  0  0
    6.0589    2.0034    2.3548 C   0  0  0  0  0  0  0  0  0  0  0  0
   -5.2462   -2.2346   -2.5196 C   0  0  0  0  0  0  0  0  0  0  0  0
   -6.3940   -3.2372   -2.2596 C   0  0  0  0  0  0  0  0  0  0  0  0
   -1.4845   -1.4650   -0.8890 S   0  0  0  0  0  0  0  0  0  0  0  0
   -0.9060   -2.7473   -1.0811 O   0  0  0  0  0  0  0  0  0  0  0  0
   -2.0602   -1.1774    0.3765 O   0  0  0  0  0  0  0  0  0  0  0  0
    3.9770    0.6643    0.9151 O   0  0  0  0  0  0  0  0  0  0  0  0
    3.6758    1.8071    2.8828 O   0  0  0  0  0  0  0  0  0  0  0  0
   -0.6018   -0.2004   -1.3619 N   0  0  0  0  0  0  0  0  0  0  0  0
    2.0040    1.7048    1.3686 N   0  0  0  0  0  0  0  0  0  0  0  0
   -4.8933   -2.3289   -3.8095 F   0  0  0  0  0  0  0  0  0  0  0  0
   -5.7157   -0.9978   -2.3027 F   0  0  0  0  0  0  0  0  0  0  0  0
   -4.2189   -4.5551   -1.4742 H   0  0  0  0  0  0  0  0  0  0  0  0
   -2.5862   -3.9950   -1.2038 H   0  0  0  0  0  0  0  0  0  0  0  0
   -3.2304   -4.0598   -2.8270 H   0  0  0  0  0  0  0  0  0  0  0  0
   -4.2459   -2.2765   -0.6287 H   0  0  0  0  0  0  0  0  0  0  0  0
   -3.3415   -0.4438   -2.0160 H   0  0  0  0  0  0  0  0  0  0  0  0
   -2.5672   -1.6433   -3.0238 H   0  0  0  0  0  0  0  0  0  0  0  0
    0.2201   -0.4266   -1.8454 H   0  0  0  0  0  0  0  0  0  0  0  0
   -2.8146    1.3553   -2.0053 H   0  0  0  0  0  0  0  0  0  0  0  0
   -2.4460    2.6445   -0.8852 H   0  0  0  0  0  0  0  0  0  0  0  0
   -2.7766    1.0357   -0.2880 H   0  0  0  0  0  0  0  0  0  0  0  0
   -0.3468    3.0120   -2.2994 H   0  0  0  0  0  0  0  0  0  0  0  0
   -0.7511    1.6264   -3.2839 H   0  0  0  0  0  0  0  0  0  0  0  0
    0.7977    1.7040   -2.4780 H   0  0  0  0  0  0  0  0  0  0  0  0
   -0.6407    1.3655    0.9322 H   0  0  0  0  0  0  0  0  0  0  0  0
   -0.1161    2.8010    0.0846 H   0  0  0  0  0  0  0  0  0  0  0  0
    1.8581    1.6244   -0.6964 H   0  0  0  0  0  0  0  0  0  0  0  0
    1.3318    0.1810    0.1364 H   0  0  0  0  0  0  0  0  0  0  0  0
    1.5223    2.2922    1.9877 H   0  0  0  0  0  0  0  0  0  0  0  0
    4.1676   -0.3899    3.8748 H   0  0  0  0  0  0  0  0  0  0  0  0
    5.9117   -0.4183    3.7754 H   0  0  0  0  0  0  0  0  0  0  0  0
    4.9533   -0.3873    2.3143 H   0  0  0  0  0  0  0  0  0  0  0  0
    6.2658    1.7945    5.0552 H   0  0  0  0  0  0  0  0  0  0  0  0
    4.5804    1.5124    5.4191 H   0  0  0  0  0  0  0  0  0  0  0  0
    5.0879    3.0524    4.7672 H   0  0  0  0  0  0  0  0  0  0  0  0
    6.0227    3.0727    2.3469 H   0  0  0  0  0  0  0  0  0  0  0  0
    5.8352    1.6319    1.3766 H   0  0  0  0  0  0  0  0  0  0  0  0
    7.0379    1.6820    2.6436 H   0  0  0  0  0  0  0  0  0  0  0  0
   -6.7873   -3.0829   -1.2766 H   0  0  0  0  0  0  0  0  0  0  0  0
   -6.0198   -4.2363   -2.3410 H   0  0  0  0  0  0  0  0  0  0  0  0
   -7.1694   -3.0863   -2.9814 H   0  0  0  0  0  0  0  0  0  0  0  0
  1  2  1  0  0  0  0
  1 25  1  0  0  0  0
  1 26  1  0  0  0  0
  1 27  1  0  0  0  0
  2  3  1  0  0  0  0
  2 14  1  0  0  0  0
  2 28  1  1  0  0  0
  3 29  1  0  0  0  0
  3 30  1  0  0  0  0
  4 21  1  0  0  0  0
  4  5  1  0  0  0  0
  4  6  1  0  0  0  0
  4  7  1  0  0  0  0
  5 32  1  0  0  0  0
  5 33  1  0  0  0  0
  5 34  1  0  0  0  0
  6 35  1  0  0  0  0
  6 36  1  0  0  0  0
  6 37  1  0  0  0  0
  7  8  1  0  0  0  0
  7 38  1  0  0  0  0
  7 39  1  0  0  0  0
  8 22  1  0  0  0  0
  8 40  1  0  0  0  0
  8 41  1  0  0  0  0
  9 22  1  0  0  0  0
  9 20  1  0  0  0  0
  9 19  2  0  0  0  0
 10 20  1  0  0  0  0
 10 11  1  0  0  0  0
 10 12  1  0  0  0  0
 10 13  1  0  0  0  0
 11 43  1  0  0  0  0
 11 44  1  0  0  0  0
 11 45  1  0  0  0  0
 12 46  1  0  0  0  0
 12 47  1  0  0  0  0
 12 48  1  0  0  0  0
 13 49  1  0  0  0  0
 13 50  1  0  0  0  0
 13 51  1  0  0  0  0
 14 15  1  0  0  0  0
 14 23  1  0  0  0  0
 14 24  1  0  0  0  0
 15 52  1  0  0  0  0
 15 53  1  0  0  0  0
 15 54  1  0  0  0  0
 16  3  1  0  0  0  0
 16 21  1  0  0  0  0
 16 17  2  0  0  0  0
 16 18  2  0  0  0  0
 21 31  1  0  0  0  0
 22 42  1  0  0  0  0
M  END
>  <score>
0.43935924768447876

$$$$
PV-003626314500
 OpenBabel08202115463D

 43 46  0  0  0  0  0  0  0  0999 V2000
   -0.4823   -1.2353   -0.1955 O   0  0  0  0  0  0  0  0  0  0  0  0
   -1.1753   -0.4045   -0.7592 C   0  0  0  0  0  0  0  0  0  0  0  0
    0.2403    1.5003   -0.1310 C   0  0  0  0  0  0  0  0  0  0  0  0
    0.3838    2.8755   -0.1910 C   0  0  0  0  0  0  0  0  0  0  0  0
    2.2693    2.8104    1.0996 C   0  0  0  0  0  0  0  0  0  0  0  0
    2.1997    1.4350    1.2144 C   0  0  0  0  0  0  0  0  0  0  0  0
    2.9655    0.2986    3.3454 C   0  0  0  0  0  0  0  0  0  0  0  0
    4.1454    0.7856    4.1484 C   0  0  0  0  0  0  0  0  0  0  0  0
    5.5509    0.6522    2.2354 C   0  0  0  0  0  0  0  0  0  0  0  0
    4.3935    0.1772    1.3927 C   0  0  0  0  0  0  0  0  0  0  0  0
    1.1659    0.7666    0.5851 C   0  0  0  0  0  0  0  0  0  0  0  0
   -2.4456   -0.8020   -1.4405 C   0  0  0  0  0  0  0  0  0  0  0  0
   -2.7508   -2.1352   -1.6384 C   0  0  0  0  0  0  0  0  0  0  0  0
   -3.8892   -2.4577   -2.3538 C   0  0  0  0  0  0  0  0  0  0  0  0
   -4.6795   -1.4344   -2.8396 C   0  0  0  0  0  0  0  0  0  0  0  0
   -5.8922   -1.7390   -3.6009 C   0  0  0  0  0  0  0  0  0  0  0  0
   -4.3010   -0.1264   -2.5919 C   0  0  0  0  0  0  0  0  0  0  0  0
   -0.8490    0.9130   -0.8071 N   0  0  0  0  0  0  0  0  0  0  0  0
    1.3834    3.5360    0.4105 N   0  0  0  0  0  0  0  0  0  0  0  0
    3.1339    0.6791    1.9439 N   0  0  0  0  0  0  0  0  0  0  0  0
    5.3961    0.2357    3.6266 N   0  0  0  0  0  0  0  0  0  0  0  0
   -6.6736   -0.8392   -4.1792 N   0  0  0  0  0  0  0  0  0  0  0  0
   -7.6732   -1.5473   -4.7690 N   0  0  0  0  0  0  0  0  0  0  0  0
   -7.5240   -2.8180   -4.5665 N   0  0  0  0  0  0  0  0  0  0  0  0
   -6.3967   -2.9584   -3.8301 N   0  0  0  0  0  0  0  0  0  0  0  0
   -3.1980    0.2007   -1.9038 N   0  0  0  0  0  0  0  0  0  0  0  0
   -1.4132    1.4999   -1.3526 H   0  0  0  0  0  0  0  0  0  0  0  0
   -0.3179    3.4231   -0.7288 H   0  0  0  0  0  0  0  0  0  0  0  0
    3.0510    3.3061    1.5736 H   0  0  0  0  0  0  0  0  0  0  0  0
    2.0685    0.7388    3.7282 H   0  0  0  0  0  0  0  0  0  0  0  0
    2.9002   -0.7668    3.4194 H   0  0  0  0  0  0  0  0  0  0  0  0
    4.1853    1.8537    4.0991 H   0  0  0  0  0  0  0  0  0  0  0  0
    4.0261    0.4792    5.1666 H   0  0  0  0  0  0  0  0  0  0  0  0
    5.3714   -0.7428    3.6763 H   0  0  0  0  0  0  0  0  0  0  0  0
    6.4583    0.2398    1.8464 H   0  0  0  0  0  0  0  0  0  0  0  0
    5.5975    1.7204    2.1939 H   0  0  0  0  0  0  0  0  0  0  0  0
    4.3759   -0.8927    1.3859 H   0  0  0  0  0  0  0  0  0  0  0  0
    4.5116    0.5388    0.3926 H   0  0  0  0  0  0  0  0  0  0  0  0
    1.0867   -0.2684    0.6496 H   0  0  0  0  0  0  0  0  0  0  0  0
   -2.1359   -2.8818   -1.2564 H   0  0  0  0  0  0  0  0  0  0  0  0
   -4.1454   -3.4513   -2.5227 H   0  0  0  0  0  0  0  0  0  0  0  0
   -6.0157   -3.8059   -3.5186 H   0  0  0  0  0  0  0  0  0  0  0  0
   -4.9016    0.6400   -2.9573 H   0  0  0  0  0  0  0  0  0  0  0  0
  2 18  1  0  0  0  0
  2 12  1  0  0  0  0
  2  1  2  0  0  0  0
  3 18  1  0  0  0  0
  3 11  1  0  0  0  0
  3  4  2  0  0  0  0
  4 19  1  0  0  0  0
  4 28  1  0  0  0  0
  5  6  1  0  0  0  0
  5 29  1  0  0  0  0
  5 19  2  0  0  0  0
  6 20  1  0  0  0  0
  6 11  2  0  0  0  0
  7 20  1  0  0  0  0
  7  8  1  0  0  0  0
  7 30  1  0  0  0  0
  7 31  1  0  0  0  0
  8 21  1  0  0  0  0
  8 32  1  0  0  0  0
  8 33  1  0  0  0  0
  9 21  1  0  0  0  0
  9 10  1  0  0  0  0
  9 35  1  0  0  0  0
  9 36  1  0  0  0  0
 10 20  1  0  0  0  0
 10 37  1  0  0  0  0
 10 38  1  0  0  0  0
 11 39  1  0  0  0  0
 12 26  1  0  0  0  0
 12 13  2  0  0  0  0
 13 14  1  0  0  0  0
 13 40  1  0  0  0  0
 14 41  1  0  0  0  0
 14 15  2  0  0  0  0
 15 16  1  0  0  0  0
 15 17  1  0  0  0  0
 16 25  1  0  0  0  0
 16 22  2  0  0  0  0
 17 43  1  0  0  0  0
 17 26  2  0  0  0  0
 18 27  1  0  0  0  0
 21 34  1  0  0  0  0
 22 23  1  0  0  0  0
 23 24  2  0  0  0  0
 24 25  1  0  0  0  0
 25 42  1  0  0  0  0
M  END
>  <score>
0.43955016136169434

$$$$
PV-003892505272
 OpenBabel08202115463D

 47 50  0  0  0  0  0  0  0  0999 V2000
    3.7468    2.7217    2.1862 O   0  0  0  0  0  0  0  0  0  0  0  0
   -2.8128    1.5579   -1.5590 O   0  0  0  0  0  0  0  0  0  0  0  0
   -2.7210   -1.9115   -2.0355 O   0  0  0  0  0  0  0  0  0  0  0  0
    3.7956    1.5027    2.1899 C   0  0  0  0  0  0  0  0  0  0  0  0
    1.6736    1.3754    1.0741 C   0  0  0  0  0  0  0  0  0  0  0  0
    0.8096    0.3475    0.3599 C   0  0  0  0  0  0  0  0  0  0  0  0
   -0.4856    0.9762   -0.1249 C   0  0  0  0  0  0  0  0  0  0  0  0
   -2.4725    0.3913   -1.4543 C   0  0  0  0  0  0  0  0  0  0  0  0
   -3.2706   -0.6714   -2.0386 C   0  0  0  0  0  0  0  0  0  0  0  0
   -4.4864   -0.7192   -2.6107 C   0  0  0  0  0  0  0  0  0  0  0  0
   -4.6701   -2.0789   -2.9755 C   0  0  0  0  0  0  0  0  0  0  0  0
   -5.8622   -2.6930   -3.6498 C   0  0  0  0  0  0  0  0  0  0  0  0
   -6.3900   -4.0850   -3.4959 C   0  0  0  0  0  0  0  0  0  0  0  0
   -5.8571   -3.6322   -4.8189 C   0  0  0  0  0  0  0  0  0  0  0  0
    1.9190    2.6867    0.2700 C   0  0  0  0  0  0  0  0  0  0  0  0
    0.7859    3.3493    1.0558 C   0  0  0  0  0  0  0  0  0  0  0  0
    0.9226    2.2310    2.1225 C   0  0  0  0  0  0  0  0  0  0  0  0
    4.8892    0.7881    2.8935 C   0  0  0  0  0  0  0  0  0  0  0  0
    5.9430    1.4558    3.4932 C   0  0  0  0  0  0  0  0  0  0  0  0
    6.8379   -0.5333    4.1511 C   0  0  0  0  0  0  0  0  0  0  0  0
    5.7841   -1.2011    3.5515 C   0  0  0  0  0  0  0  0  0  0  0  0
    2.8791    0.7356    1.5684 N   0  0  0  0  0  0  0  0  0  0  0  0
   -1.3569    0.0151   -0.8034 N   0  0  0  0  0  0  0  0  0  0  0  0
   -3.6268   -2.8058   -2.6460 N   0  0  0  0  0  0  0  0  0  0  0  0
    6.9256    0.8029    4.1270 N   0  0  0  0  0  0  0  0  0  0  0  0
    4.8014   -0.5482    2.9176 N   0  0  0  0  0  0  0  0  0  0  0  0
    3.0222   -0.2270    1.4533 H   0  0  0  0  0  0  0  0  0  0  0  0
    0.5811   -0.4495    1.0362 H   0  0  0  0  0  0  0  0  0  0  0  0
    1.3473   -0.0400   -0.4801 H   0  0  0  0  0  0  0  0  0  0  0  0
   -0.2491    1.7658   -0.8072 H   0  0  0  0  0  0  0  0  0  0  0  0
   -1.0085    1.3773    0.7181 H   0  0  0  0  0  0  0  0  0  0  0  0
   -1.1191   -0.9354   -0.7828 H   0  0  0  0  0  0  0  0  0  0  0  0
   -5.1490    0.0694   -2.7549 H   0  0  0  0  0  0  0  0  0  0  0  0
   -6.6618   -1.9866   -3.7301 H   0  0  0  0  0  0  0  0  0  0  0  0
   -7.4401   -4.2475   -3.3700 H   0  0  0  0  0  0  0  0  0  0  0  0
   -5.8457   -4.8021   -2.9176 H   0  0  0  0  0  0  0  0  0  0  0  0
   -4.9318   -4.0248   -5.1856 H   0  0  0  0  0  0  0  0  0  0  0  0
   -6.5262   -3.4703   -5.6380 H   0  0  0  0  0  0  0  0  0  0  0  0
    1.7346    2.6002   -0.7805 H   0  0  0  0  0  0  0  0  0  0  0  0
    2.8812    3.1270    0.4286 H   0  0  0  0  0  0  0  0  0  0  0  0
   -0.1555    3.3626    0.5475 H   0  0  0  0  0  0  0  0  0  0  0  0
    1.0123    4.3318    1.4141 H   0  0  0  0  0  0  0  0  0  0  0  0
    1.5102    2.5023    2.9745 H   0  0  0  0  0  0  0  0  0  0  0  0
   -0.0078    1.8147    2.4481 H   0  0  0  0  0  0  0  0  0  0  0  0
    5.9726    2.4945    3.4502 H   0  0  0  0  0  0  0  0  0  0  0  0
    7.5791   -1.0822    4.6317 H   0  0  0  0  0  0  0  0  0  0  0  0
    5.7546   -2.2398    3.5943 H   0  0  0  0  0  0  0  0  0  0  0  0
  4 22  1  0  0  0  0
  4 18  1  0  0  0  0
  4  1  2  0  0  0  0
  5 22  1  0  0  0  0
  5  6  1  0  0  0  0
  5 15  1  0  0  0  0
  5 17  1  0  0  0  0
  6  7  1  0  0  0  0
  6 28  1  0  0  0  0
  6 29  1  0  0  0  0
  7 23  1  0  0  0  0
  7 30  1  0  0  0  0
  7 31  1  0  0  0  0
  8 23  1  0  0  0  0
  8  9  1  0  0  0  0
  8  2  2  0  0  0  0
  9  3  1  0  0  0  0
  9 10  2  0  0  0  0
 10 11  1  0  0  0  0
 10 33  1  0  0  0  0
 11 12  1  0  0  0  0
 11 24  2  0  0  0  0
 12 13  1  0  0  0  0
 12 14  1  0  0  0  0
 12 34  1  0  0  0  0
 13 14  1  0  0  0  0
 13 35  1  0  0  0  0
 13 36  1  0  0  0  0
 14 37  1  0  0  0  0
 14 38  1  0  0  0  0
 15 16  1  0  0  0  0
 15 39  1  0  0  0  0
 15 40  1  0  0  0  0
 16 17  1  0  0  0  0
 16 41  1  0  0  0  0
 16 42  1  0  0  0  0
 17 43  1  0  0  0  0
 17 44  1  0  0  0  0
 18 26  1  0  0  0  0
 18 19  2  0  0  0  0
 19 25  1  0  0  0  0
 19 45  1  0  0  0  0
 20 21  1  0  0  0  0
 20 46  1  0  0  0  0
 20 25  2  0  0  0  0
 21 47  1  0  0  0  0
 21 26  2  0  0  0  0
 22 27  1  0  0  0  0
 23 32  1  0  0  0  0
 24  3  1  0  0  0  0
M  END
>  <score>
0.43955039978027344

$$$$
Z3818360200
 OpenBabel08202115463D

 48 50  0  0  0  0  0  0  0  0999 V2000
   -1.7029    0.7177   -0.3813 O   0  0  0  0  0  0  0  0  0  0  0  0
    0.9346    0.6123   -0.2058 O   0  0  0  0  0  0  0  0  0  0  0  0
    2.8885   -0.4253    0.1187 O   0  0  0  0  0  0  0  0  0  0  0  0
    4.2135    1.9668    0.1275 O   0  0  0  0  0  0  0  0  0  0  0  0
   -2.9971   -3.8359   -1.4366 O   0  0  0  0  0  0  0  0  0  0  0  0
   -1.1914   -0.3891   -0.3407 C   0  0  0  0  0  0  0  0  0  0  0  0
    0.2147   -0.5797    0.1471 C   0  0  0  0  0  0  0  0  0  0  0  0
    2.2673    0.5731   -0.1063 C   0  0  0  0  0  0  0  0  0  0  0  0
    2.8622    1.9419   -0.3144 C   0  0  1  0  0  0  0  0  0  0  0  0
    2.1232    2.9819    0.5409 C   0  0  0  0  0  0  0  0  0  0  0  0
    3.2341    2.3234    1.3004 C   0  0  2  0  0  0  0  0  0  0  0  0
    2.9795    2.4434    2.8182 C   0  0  0  0  0  0  0  0  0  0  0  0
    4.2341    2.3485    3.6820 C   0  0  0  0  0  0  0  0  0  0  0  0
    5.4574    1.9490    2.8558 C   0  0  0  0  0  0  0  0  0  0  0  0
    5.6762    2.9674    1.7526 C   0  0  0  0  0  0  0  0  0  0  0  0
    4.6862    1.8392    1.4846 C   0  0  2  0  0  0  0  0  0  0  0  0
   -3.1830   -1.4791   -1.2641 C   0  0  0  0  0  0  0  0  0  0  0  0
   -3.6876   -2.8518   -1.6340 C   0  0  0  0  0  0  0  0  0  0  0  0
   -5.0333   -2.9817   -2.2396 C   0  0  0  0  0  0  0  0  0  0  0  0
   -5.4855   -4.2264   -2.6352 C   0  0  0  0  0  0  0  0  0  0  0  0
   -6.7453   -4.3597   -3.1980 C   0  0  0  0  0  0  0  0  0  0  0  0
   -7.5470   -3.2469   -3.3686 C   0  0  0  0  0  0  0  0  0  0  0  0
   -7.0936   -1.9984   -2.9719 C   0  0  0  0  0  0  0  0  0  0  0  0
   -5.8375   -1.8657   -2.4107 C   0  0  0  0  0  0  0  0  0  0  0  0
   -1.8328   -1.5052   -0.7218 N   0  0  0  0  0  0  0  0  0  0  0  0
    0.6571   -1.4319   -0.3251 H   0  0  0  0  0  0  0  0  0  0  0  0
    0.2224   -0.7153    1.2084 H   0  0  0  0  0  0  0  0  0  0  0  0
    2.8043    2.2027   -1.3505 H   0  0  0  0  0  0  0  0  0  0  0  0
    1.8447    3.8268   -0.0536 H   0  0  0  0  0  0  0  0  0  0  0  0
    1.2484    2.5514    0.9818 H   0  0  0  0  0  0  0  0  0  0  0  0
    3.3646    1.3014    1.0115 H   0  0  0  0  0  0  0  0  0  0  0  0
    2.7487    1.4628    2.4577 H   0  0  0  0  0  0  0  0  0  0  0  0
    2.1779    2.7956    3.4333 H   0  0  0  0  0  0  0  0  0  0  0  0
    4.0757    1.6151    4.4447 H   0  0  0  0  0  0  0  0  0  0  0  0
    4.4168    3.3008    4.1345 H   0  0  0  0  0  0  0  0  0  0  0  0
    6.3199    1.9172    3.4882 H   0  0  0  0  0  0  0  0  0  0  0  0
    5.2959    0.9837    2.4233 H   0  0  0  0  0  0  0  0  0  0  0  0
    5.9384    3.9031    2.2007 H   0  0  0  0  0  0  0  0  0  0  0  0
    6.4808    2.6302    1.1332 H   0  0  0  0  0  0  0  0  0  0  0  0
    5.0272    0.8257    1.5235 H   0  0  0  0  0  0  0  0  0  0  0  0
   -1.3758   -2.3674   -0.6317 H   0  0  0  0  0  0  0  0  0  0  0  0
   -3.1882   -0.8649   -2.1402 H   0  0  0  0  0  0  0  0  0  0  0  0
   -3.8387   -1.0596   -0.5299 H   0  0  0  0  0  0  0  0  0  0  0  0
   -4.8806   -5.0632   -2.5106 H   0  0  0  0  0  0  0  0  0  0  0  0
   -7.0871   -5.2969   -3.4920 H   0  0  0  0  0  0  0  0  0  0  0  0
   -8.4905   -3.3462   -3.7945 H   0  0  0  0  0  0  0  0  0  0  0  0
   -7.6986   -1.1617   -3.0966 H   0  0  0  0  0  0  0  0  0  0  0  0
   -5.4957   -0.9285   -2.1168 H   0  0  0  0  0  0  0  0  0  0  0  0
  6  7  1  0  0  0  0
  6 25  1  0  0  0  0
  6  1  2  0  0  0  0
  7  2  1  0  0  0  0
  7 26  1  0  0  0  0
  7 27  1  0  0  0  0
  8  2  1  0  0  0  0
  8  9  1  0  0  0  0
  8  3  2  0  0  0  0
  9 10  1  0  0  0  0
  9  4  1  0  0  0  0
  9 28  1  6  0  0  0
 10 11  1  0  0  0  0
 10 29  1  0  0  0  0
 10 30  1  0  0  0  0
 11 12  1  0  0  0  0
 11 16  1  0  0  0  0
 11 31  1  6  0  0  0
 12 13  1  0  0  0  0
 12 32  1  0  0  0  0
 12 33  1  0  0  0  0
 13 14  1  0  0  0  0
 13 34  1  0  0  0  0
 13 35  1  0  0  0  0
 14 15  1  0  0  0  0
 14 36  1  0  0  0  0
 14 37  1  0  0  0  0
 15 16  1  0  0  0  0
 15 38  1  0  0  0  0
 15 39  1  0  0  0  0
 16  4  1  0  0  0  0
 16 40  1  1  0  0  0
 17 25  1  0  0  0  0
 17 18  1  0  0  0  0
 17 42  1  0  0  0  0
 17 43  1  0  0  0  0
 18 19  1  0  0  0  0
 18  5  2  0  0  0  0
 19 24  1  0  0  0  0
 19 20  2  0  0  0  0
 20 21  1  0  0  0  0
 20 44  1  0  0  0  0
 21 45  1  0  0  0  0
 21 22  2  0  0  0  0
 22 23  1  0  0  0  0
 22 46  1  0  0  0  0
 23 47  1  0  0  0  0
 23 24  2  0  0  0  0
 24 48  1  0  0  0  0
 25 41  1  0  0  0  0
M  END
>  <score>
0.43957054615020752

$$$$
Z4252706322
 OpenBabel08202115463D

 55 57  0  0  0  0  0  0  0  0999 V2000
    2.0679    4.4372   -0.4521 C   0  0  0  0  0  0  0  0  0  0  0  0
    1.5023    3.3303    0.4205 C   0  0  1  0  0  0  0  0  0  0  0  0
    0.2917    2.7375   -0.1637 C   0  0  0  0  0  0  0  0  0  0  0  0
   -0.4925    1.6905    0.6165 C   0  0  0  0  0  0  0  0  0  0  0  0
   -1.6608    1.1345   -0.1527 C   0  0  0  0  0  0  0  0  0  0  0  0
   -2.9099   -0.2570   -1.0835 C   0  0  0  0  0  0  0  0  0  0  0  0
   -3.6941   -1.3804   -1.6464 C   0  0  0  0  0  0  0  0  0  0  0  0
   -4.9430   -1.1551   -2.1120 C   0  0  0  0  0  0  0  0  0  0  0  0
   -7.0356   -1.9374   -3.0870 C   0  0  0  0  0  0  0  0  0  0  0  0
   -5.2303   -3.5028   -2.7010 C   0  0  0  0  0  0  0  0  0  0  0  0
   -3.8749   -3.7465   -2.2242 C   0  0  0  0  0  0  0  0  0  0  0  0
   -3.3372   -5.0341   -2.2915 C   0  0  0  0  0  0  0  0  0  0  0  0
   -2.0722   -5.2760   -1.8303 C   0  0  0  0  0  0  0  0  0  0  0  0
   -1.3113   -4.2371   -1.3041 C   0  0  0  0  0  0  0  0  0  0  0  0
   -1.8176   -2.9695   -1.2350 C   0  0  0  0  0  0  0  0  0  0  0  0
   -3.1219   -2.6861   -1.6904 C   0  0  0  0  0  0  0  0  0  0  0  0
    3.1019    1.9736    1.7878 C   0  0  0  0  0  0  0  0  0  0  0  0
    4.9883    0.8638    2.7317 C   0  0  0  0  0  0  0  0  0  0  0  0
    6.0318   -0.1619    2.3766 C   0  0  0  0  0  0  0  0  0  0  0  0
    4.2091    0.5002    3.9851 C   0  0  0  0  0  0  0  0  0  0  0  0
    5.6027    2.2357    2.8583 C   0  0  0  0  0  0  0  0  0  0  0  0
   -2.4860    1.8950   -0.8219 N   0  0  0  0  0  0  0  0  0  0  0  0
   -5.6742   -2.2171   -2.6129 N   0  0  0  0  0  0  0  0  0  0  0  0
   -1.8865   -0.2211   -0.2871 N   0  0  0  0  0  0  0  0  0  0  0  0
    2.4906    2.2622    0.6133 N   0  0  0  0  0  0  0  0  0  0  0  0
   -3.3282    0.9645   -1.4627 O   0  0  0  0  0  0  0  0  0  0  0  0
   -5.9268   -4.3970   -3.1525 O   0  0  0  0  0  0  0  0  0  0  0  0
    2.8249    2.4774    2.8470 O   0  0  0  0  0  0  0  0  0  0  0  0
    4.0567    1.0477    1.5959 O   0  0  0  0  0  0  0  0  0  0  0  0
    2.3534    4.0334   -1.4009 H   0  0  0  0  0  0  0  0  0  0  0  0
    2.9244    4.8651    0.0255 H   0  0  0  0  0  0  0  0  0  0  0  0
    1.3242    5.1930   -0.5957 H   0  0  0  0  0  0  0  0  0  0  0  0
    1.2472    3.7470    1.3724 H   0  0  0  0  0  0  0  0  0  0  0  0
    0.5848    2.2808   -1.0859 H   0  0  0  0  0  0  0  0  0  0  0  0
   -0.3826    3.5441   -0.3631 H   0  0  0  0  0  0  0  0  0  0  0  0
   -0.8595    2.1400    1.5155 H   0  0  0  0  0  0  0  0  0  0  0  0
    0.1672    0.8850    0.8634 H   0  0  0  0  0  0  0  0  0  0  0  0
   -5.3482   -0.1975   -2.0938 H   0  0  0  0  0  0  0  0  0  0  0  0
   -7.1948   -2.4268   -4.0251 H   0  0  0  0  0  0  0  0  0  0  0  0
   -7.1603   -0.8818   -3.2100 H   0  0  0  0  0  0  0  0  0  0  0  0
   -7.7437   -2.2997   -2.3713 H   0  0  0  0  0  0  0  0  0  0  0  0
   -3.9001   -5.8108   -2.6933 H   0  0  0  0  0  0  0  0  0  0  0  0
   -1.6790   -6.2378   -1.8730 H   0  0  0  0  0  0  0  0  0  0  0  0
   -0.3483   -4.4267   -0.9601 H   0  0  0  0  0  0  0  0  0  0  0  0
   -1.2335   -2.2041   -0.8417 H   0  0  0  0  0  0  0  0  0  0  0  0
    2.7261    1.7167   -0.1661 H   0  0  0  0  0  0  0  0  0  0  0  0
    6.6143   -0.3938    3.2437 H   0  0  0  0  0  0  0  0  0  0  0  0
    6.6705    0.2293    1.6124 H   0  0  0  0  0  0  0  0  0  0  0  0
    5.5523   -1.0500    2.0214 H   0  0  0  0  0  0  0  0  0  0  0  0
    3.5707   -0.3335    3.7795 H   0  0  0  0  0  0  0  0  0  0  0  0
    3.6158    1.3365    4.2911 H   0  0  0  0  0  0  0  0  0  0  0  0
    4.8922    0.2418    4.7671 H   0  0  0  0  0  0  0  0  0  0  0  0
    4.8573    2.9326    3.1804 H   0  0  0  0  0  0  0  0  0  0  0  0
    5.9901    2.5417    1.9090 H   0  0  0  0  0  0  0  0  0  0  0  0
    6.3964    2.2060    3.5752 H   0  0  0  0  0  0  0  0  0  0  0  0
  1  2  1  0  0  0  0
  1 30  1  0  0  0  0
  1 31  1  0  0  0  0
  1 32  1  0  0  0  0
  2  3  1  0  0  0  0
  2 25  1  0  0  0  0
  2 33  1  1  0  0  0
  3  4  1  0  0  0  0
  3 34  1  0  0  0  0
  3 35  1  0  0  0  0
  4  5  1  0  0  0  0
  4 36  1  0  0  0  0
  4 37  1  0  0  0  0
  5 24  1  0  0  0  0
  5 22  2  0  0  0  0
  6 26  1  0  0  0  0
  6  7  1  0  0  0  0
  6 24  2  0  0  0  0
  7 16  1  0  0  0  0
  7  8  2  0  0  0  0
  8 23  1  0  0  0  0
  8 38  1  0  0  0  0
  9 23  1  0  0  0  0
  9 39  1  0  0  0  0
  9 40  1  0  0  0  0
  9 41  1  0  0  0  0
 10 23  1  0  0  0  0
 10 11  1  0  0  0  0
 10 27  2  0  0  0  0
 11 16  1  0  0  0  0
 11 12  2  0  0  0  0
 12 13  1  0  0  0  0
 12 42  1  0  0  0  0
 13 43  1  0  0  0  0
 13 14  2  0  0  0  0
 14 15  1  0  0  0  0
 14 44  1  0  0  0  0
 15 45  1  0  0  0  0
 15 16  2  0  0  0  0
 17 25  1  0  0  0  0
 17 29  1  0  0  0  0
 17 28  2  0  0  0  0
 18 29  1  0  0  0  0
 18 19  1  0  0  0  0
 18 20  1  0  0  0  0
 18 21  1  0  0  0  0
 19 47  1  0  0  0  0
 19 48  1  0  0  0  0
 19 49  1  0  0  0  0
 20 50  1  0  0  0  0
 20 51  1  0  0  0  0
 20 52  1  0  0  0  0
 21 53  1  0  0  0  0
 21 54  1  0  0  0  0
 21 55  1  0  0  0  0
 22 26  1  0  0  0  0
 25 46  1  0  0  0  0
M  END
>  <score>
0.4397321343421936

$$$$
PV-003744951320
 OpenBabel08202115463D

 55 55  0  0  0  0  0  0  0  0999 V2000
    5.4350   -0.2205    4.0591 C   0  0  0  0  0  0  0  0  0  0  0  0
    4.9123    0.2601    2.7274 C   0  0  0  0  0  0  0  0  0  0  0  0
    5.0633    2.6780    3.2509 C   0  0  0  0  0  0  0  0  0  0  0  0
    6.0703    2.9922    2.1657 C   0  0  0  0  0  0  0  0  0  0  0  0
    3.4620    1.8315    1.5727 C   0  0  0  0  0  0  0  0  0  0  0  0
    2.3596    0.8350    1.3231 C   0  0  0  0  0  0  0  0  0  0  0  0
    0.4057    0.2628   -0.0590 C   0  0  1  0  0  0  0  0  0  0  0  0
   -0.9254    0.6783    0.5590 C   0  0  0  0  0  0  0  0  0  0  0  0
   -1.9975    0.5504   -0.5301 C   0  0  1  0  0  0  0  0  0  0  0  0
   -3.3846   -1.1862   -1.5501 C   0  0  0  0  0  0  0  0  0  0  0  0
   -3.7549   -2.6689   -1.5579 C   0  0  1  0  0  0  0  0  0  0  0  0
   -3.7101   -3.2624   -0.1468 C   0  0  0  0  0  0  0  0  0  0  0  0
   -5.5109   -2.2390   -3.2893 C   0  0  0  0  0  0  0  0  0  0  0  0
   -7.4350   -1.6903   -4.5817 C   0  0  0  0  0  0  0  0  0  0  0  0
   -1.2199    1.0000   -1.8124 C   0  0  0  0  0  0  0  0  0  0  0  0
    0.1701    0.3701   -1.6059 C   0  0  1  0  0  0  0  0  0  0  0  0
    4.1953    1.5488    2.8331 N   0  0  0  0  0  0  0  0  0  0  0  0
    1.4791    1.1670    0.3657 N   0  0  0  0  0  0  0  0  0  0  0  0
   -2.4658   -0.8221   -0.6510 N   0  0  0  0  0  0  0  0  0  0  0  0
   -5.0959   -2.8093   -2.1072 N   0  0  0  0  0  0  0  0  0  0  0  0
    2.2873   -0.2115    1.9660 O   0  0  0  0  0  0  0  0  0  0  0  0
   -3.9090   -0.3941   -2.3286 O   0  0  0  0  0  0  0  0  0  0  0  0
   -4.7473   -1.6927   -4.0450 O   0  0  0  0  0  0  0  0  0  0  0  0
   -6.8462   -2.3780   -3.4669 O   0  0  0  0  0  0  0  0  0  0  0  0
    1.1742    1.1960   -2.1975 O   0  0  0  0  0  0  0  0  0  0  0  0
    5.9806    0.5679    4.5342 H   0  0  0  0  0  0  0  0  0  0  0  0
    6.0812   -1.0596    3.9066 H   0  0  0  0  0  0  0  0  0  0  0  0
    4.6138   -0.5105    4.6808 H   0  0  0  0  0  0  0  0  0  0  0  0
    4.2403   -0.4754    2.3369 H   0  0  0  0  0  0  0  0  0  0  0  0
    5.7381    0.3807    2.0579 H   0  0  0  0  0  0  0  0  0  0  0  0
    5.5821    2.4117    4.1480 H   0  0  0  0  0  0  0  0  0  0  0  0
    4.4575    3.5414    3.4315 H   0  0  0  0  0  0  0  0  0  0  0  0
    6.6613    3.8342    2.4599 H   0  0  0  0  0  0  0  0  0  0  0  0
    5.5547    3.2189    1.2560 H   0  0  0  0  0  0  0  0  0  0  0  0
    6.7067    2.1455    2.0142 H   0  0  0  0  0  0  0  0  0  0  0  0
    4.1523    1.7941    0.7561 H   0  0  0  0  0  0  0  0  0  0  0  0
    3.0345    2.8105    1.6344 H   0  0  0  0  0  0  0  0  0  0  0  0
    1.5564    2.0442   -0.0643 H   0  0  0  0  0  0  0  0  0  0  0  0
    0.6540   -0.7407    0.2170 H   0  0  0  0  0  0  0  0  0  0  0  0
   -0.8698    1.6910    0.8999 H   0  0  0  0  0  0  0  0  0  0  0  0
   -1.1623    0.0369    1.3821 H   0  0  0  0  0  0  0  0  0  0  0  0
   -2.8285    1.1954   -0.3342 H   0  0  0  0  0  0  0  0  0  0  0  0
   -2.0943   -1.5031   -0.0521 H   0  0  0  0  0  0  0  0  0  0  0  0
   -3.0574   -3.1955   -2.1752 H   0  0  0  0  0  0  0  0  0  0  0  0
   -4.3563   -2.7028    0.4968 H   0  0  0  0  0  0  0  0  0  0  0  0
   -2.7086   -3.2174    0.2272 H   0  0  0  0  0  0  0  0  0  0  0  0
   -4.0341   -4.2817   -0.1784 H   0  0  0  0  0  0  0  0  0  0  0  0
   -5.7445   -3.3440   -1.6033 H   0  0  0  0  0  0  0  0  0  0  0  0
   -6.8062   -1.7986   -5.4407 H   0  0  0  0  0  0  0  0  0  0  0  0
   -7.5396   -0.6521   -4.3452 H   0  0  0  0  0  0  0  0  0  0  0  0
   -8.3979   -2.1080   -4.7899 H   0  0  0  0  0  0  0  0  0  0  0  0
   -1.6864    0.6224   -2.6982 H   0  0  0  0  0  0  0  0  0  0  0  0
   -1.1550    2.0665   -1.8697 H   0  0  0  0  0  0  0  0  0  0  0  0
    0.2009   -0.6030   -2.0497 H   0  0  0  0  0  0  0  0  0  0  0  0
    1.2161    2.0338   -1.7306 H   0  0  0  0  0  0  0  0  0  0  0  0
  1  2  1  0  0  0  0
  1 26  1  0  0  0  0
  1 27  1  0  0  0  0
  1 28  1  0  0  0  0
  2 17  1  0  0  0  0
  2 29  1  0  0  0  0
  2 30  1  0  0  0  0
  3 17  1  0  0  0  0
  3  4  1  0  0  0  0
  3 31  1  0  0  0  0
  3 32  1  0  0  0  0
  4 33  1  0  0  0  0
  4 34  1  0  0  0  0
  4 35  1  0  0  0  0
  5 17  1  0  0  0  0
  5  6  1  0  0  0  0
  5 36  1  0  0  0  0
  5 37  1  0  0  0  0
  6 18  1  0  0  0  0
  6 21  2  0  0  0  0
  7 18  1  0  0  0  0
  7  8  1  0  0  0  0
  7 16  1  0  0  0  0
  7 39  1  1  0  0  0
  8  9  1  0  0  0  0
  8 40  1  0  0  0  0
  8 41  1  0  0  0  0
  9 19  1  0  0  0  0
  9 15  1  0  0  0  0
  9 42  1  1  0  0  0
 10 19  1  0  0  0  0
 10 11  1  0  0  0  0
 10 22  2  0  0  0  0
 11 12  1  0  0  0  0
 11 20  1  0  0  0  0
 11 44  1  6  0  0  0
 12 45  1  0  0  0  0
 12 46  1  0  0  0  0
 12 47  1  0  0  0  0
 13 20  1  0  0  0  0
 13 24  1  0  0  0  0
 13 23  2  0  0  0  0
 14 24  1  0  0  0  0
 14 49  1  0  0  0  0
 14 50  1  0  0  0  0
 14 51  1  0  0  0  0
 15 16  1  0  0  0  0
 15 52  1  0  0  0  0
 15 53  1  0  0  0  0
 16 25  1  0  0  0  0
 16 54  1  6  0  0  0
 18 38  1  0  0  0  0
 19 43  1  0  0  0  0
 20 48  1  0  0  0  0
 25 55  1  0  0  0  0
M  END
>  <score>
0.43973469734191895

$$$$
PV-003544022814
 OpenBabel08202115463D

 52 54  0  0  0  0  0  0  0  0999 V2000
   -6.8697   -3.2812   -4.6718 C   0  0  0  0  0  0  0  0  0  0  0  0
   -5.0614   -3.0486   -3.1333 C   0  0  1  0  0  0  0  0  0  0  0  0
   -3.5258   -2.8996   -2.9491 C   0  0  0  0  0  0  0  0  0  0  0  0
   -3.7456   -1.3896   -2.6113 C   0  0  1  0  0  0  0  0  0  0  0  0
   -3.0835   -0.7064   -1.4298 C   0  0  0  0  0  0  0  0  0  0  0  0
   -1.0188   -0.2414   -0.2455 C   0  0  0  0  0  0  0  0  0  0  0  0
   -0.6086    1.1673   -0.6087 C   0  0  0  0  0  0  0  0  0  0  0  0
   -0.2236    2.3038    1.5657 C   0  0  0  0  0  0  0  0  0  0  0  0
    1.6757    1.5641    0.2725 C   0  0  0  0  0  0  0  0  0  0  0  0
    2.4985    1.9459    1.4681 C   0  0  0  0  0  0  0  0  0  0  0  0
    4.7539    1.8087    2.3513 C   0  0  1  0  0  0  0  0  0  0  0  0
    4.2960    0.9372    3.5148 C   0  0  0  0  0  0  0  0  0  0  0  0
    5.2898    0.9885    4.6699 C   0  0  0  0  0  0  0  0  0  0  0  0
    6.6697    0.6417    4.1529 C   0  0  0  0  0  0  0  0  0  0  0  0
    6.1799    1.4088    1.9376 C   0  0  0  0  0  0  0  0  0  0  0  0
   -4.4652   -0.6852   -3.7031 C   0  0  0  0  0  0  0  0  0  0  0  0
   -5.2383   -1.5974   -2.7425 C   0  0  1  0  0  0  0  0  0  0  0  0
   -5.4630   -3.3468   -4.4681 O   0  0  0  0  0  0  0  0  0  0  0  0
   -3.7343   -0.0227   -0.6407 O   0  0  0  0  0  0  0  0  0  0  0  0
    2.2066    1.1077   -0.7391 O   0  0  0  0  0  0  0  0  0  0  0  0
    3.8674    1.6266    1.2421 O   0  0  0  0  0  0  0  0  0  0  0  0
    7.0460    1.5155    3.0781 O   0  0  0  0  0  0  0  0  0  0  0  0
   -1.7603   -0.8992   -1.3110 N   0  0  0  0  0  0  0  0  0  0  0  0
    0.3460    1.7355    0.3406 N   0  0  0  0  0  0  0  0  0  0  0  0
   -7.3448   -4.0817   -4.1441 H   0  0  0  0  0  0  0  0  0  0  0  0
   -7.0829   -3.3671   -5.7168 H   0  0  0  0  0  0  0  0  0  0  0  0
   -7.2393   -2.3454   -4.3076 H   0  0  0  0  0  0  0  0  0  0  0  0
   -5.5183   -3.7427   -2.4593 H   0  0  0  0  0  0  0  0  0  0  0  0
   -3.1199   -3.4770   -2.1449 H   0  0  0  0  0  0  0  0  0  0  0  0
   -2.9558   -3.0746   -3.8376 H   0  0  0  0  0  0  0  0  0  0  0  0
   -1.2927   -1.4841   -1.9432 H   0  0  0  0  0  0  0  0  0  0  0  0
   -0.1379   -0.8123   -0.0378 H   0  0  0  0  0  0  0  0  0  0  0  0
   -1.6347   -0.2045    0.6287 H   0  0  0  0  0  0  0  0  0  0  0  0
   -1.4823    1.7847   -0.6275 H   0  0  0  0  0  0  0  0  0  0  0  0
   -0.1597    1.1540   -1.5799 H   0  0  0  0  0  0  0  0  0  0  0  0
    0.5054    2.9237    2.0444 H   0  0  0  0  0  0  0  0  0  0  0  0
   -0.5081    1.5123    2.2271 H   0  0  0  0  0  0  0  0  0  0  0  0
   -1.0840    2.8905    1.3198 H   0  0  0  0  0  0  0  0  0  0  0  0
    2.1471    1.4102    2.3251 H   0  0  0  0  0  0  0  0  0  0  0  0
    2.4044    2.9977    1.6410 H   0  0  0  0  0  0  0  0  0  0  0  0
    4.7450    2.8358    2.6508 H   0  0  0  0  0  0  0  0  0  0  0  0
    3.3445    1.2860    3.8580 H   0  0  0  0  0  0  0  0  0  0  0  0
    4.2053   -0.0744    3.1779 H   0  0  0  0  0  0  0  0  0  0  0  0
    5.3014    1.9731    5.0888 H   0  0  0  0  0  0  0  0  0  0  0  0
    5.0015    0.2839    5.4218 H   0  0  0  0  0  0  0  0  0  0  0  0
    6.6682   -0.3683    3.7996 H   0  0  0  0  0  0  0  0  0  0  0  0
    7.3776    0.7404    4.9493 H   0  0  0  0  0  0  0  0  0  0  0  0
    6.1800    0.4000    1.5806 H   0  0  0  0  0  0  0  0  0  0  0  0
    6.5249    2.0617    1.1632 H   0  0  0  0  0  0  0  0  0  0  0  0
   -4.3170   -0.9831   -4.7201 H   0  0  0  0  0  0  0  0  0  0  0  0
   -4.5994    0.3754   -3.6575 H   0  0  0  0  0  0  0  0  0  0  0  0
   -5.9615   -1.2452   -2.0386 H   0  0  0  0  0  0  0  0  0  0  0  0
  1 18  1  0  0  0  0
  1 25  1  0  0  0  0
  1 26  1  0  0  0  0
  1 27  1  0  0  0  0
  2 18  1  0  0  0  0
  2  3  1  0  0  0  0
  2 17  1  0  0  0  0
  2 28  1  1  0  0  0
  3  4  1  0  0  0  0
  3 29  1  0  0  0  0
  3 30  1  0  0  0  0
  4  5  1  1  0  0  0
  4 16  1  0  0  0  0
  4 17  1  0  0  0  0
  5 23  1  0  0  0  0
  5 19  2  0  0  0  0
  6 23  1  0  0  0  0
  6  7  1  0  0  0  0
  6 32  1  0  0  0  0
  6 33  1  0  0  0  0
  7 24  1  0  0  0  0
  7 34  1  0  0  0  0
  7 35  1  0  0  0  0
  8 24  1  0  0  0  0
  8 36  1  0  0  0  0
  8 37  1  0  0  0  0
  8 38  1  0  0  0  0
  9 24  1  0  0  0  0
  9 10  1  0  0  0  0
  9 20  2  0  0  0  0
 10 21  1  0  0  0  0
 10 39  1  0  0  0  0
 10 40  1  0  0  0  0
 11 21  1  0  0  0  0
 11 12  1  0  0  0  0
 11 15  1  0  0  0  0
 11 41  1  1  0  0  0
 12 13  1  0  0  0  0
 12 42  1  0  0  0  0
 12 43  1  0  0  0  0
 13 14  1  0  0  0  0
 13 44  1  0  0  0  0
 13 45  1  0  0  0  0
 14 22  1  0  0  0  0
 14 46  1  0  0  0  0
 14 47  1  0  0  0  0
 15 22  1  0  0  0  0
 15 48  1  0  0  0  0
 15 49  1  0  0  0  0
 16 17  1  0  0  0  0
 16 50  1  0  0  0  0
 16 51  1  0  0  0  0
 17 52  1  1  0  0  0
 23 31  1  0  0  0  0
M  END
>  <score>
0.43982428312301636

$$$$
Z4252640328
 OpenBabel08202115463D

 44 47  0  0  0  0  0  0  0  0999 V2000
    5.9376   -0.3527    4.5496 O   0  0  0  0  0  0  0  0  0  0  0  0
   -3.5797   -0.3570   -0.7257 O   0  0  0  0  0  0  0  0  0  0  0  0
   -5.1509   -3.7750   -2.5452 O   0  0  0  0  0  0  0  0  0  0  0  0
    6.2989    0.1126    3.2574 C   0  0  0  0  0  0  0  0  0  0  0  0
    5.3676    1.2326    2.8898 C   0  0  0  0  0  0  0  0  0  0  0  0
    5.7420    2.5444    3.1116 C   0  0  0  0  0  0  0  0  0  0  0  0
    4.8844    3.5776    2.7673 C   0  0  0  0  0  0  0  0  0  0  0  0
    3.6527    3.2958    2.2071 C   0  0  0  0  0  0  0  0  0  0  0  0
    3.2773    1.9801    1.9847 C   0  0  0  0  0  0  0  0  0  0  0  0
    1.9823    1.5824    1.3854 C   0  0  0  0  0  0  0  0  0  0  0  0
    1.4347    2.3181    0.3526 C   0  0  0  0  0  0  0  0  0  0  0  0
    0.2713    1.8651   -0.2414 C   0  0  0  0  0  0  0  0  0  0  0  0
   -0.2964    0.6920    0.2182 C   0  0  0  0  0  0  0  0  0  0  0  0
   -1.5393    0.1045   -0.3401 C   0  0  0  0  0  0  0  0  0  0  0  0
   -2.7806   -1.0758   -1.5354 C   0  0  0  0  0  0  0  0  0  0  0  0
   -3.4966   -2.0050   -2.4766 C   0  0  1  0  0  0  0  0  0  0  0  0
   -4.3829   -2.9539   -1.6748 C   0  0  0  0  0  0  0  0  0  0  0  0
   -6.0417   -3.0292   -3.3897 C   0  0  0  0  0  0  0  0  0  0  0  0
   -5.2370   -2.0841   -4.2843 C   0  0  0  0  0  0  0  0  0  0  0  0
   -4.3532   -1.1878   -3.4413 C   0  0  0  0  0  0  0  0  0  0  0  0
    1.3455    0.4204    1.7851 C   0  0  0  0  0  0  0  0  0  0  0  0
    4.1323    0.9498    2.3280 C   0  0  0  0  0  0  0  0  0  0  0  0
   -2.7326    0.4275    0.0823 N   0  0  0  0  0  0  0  0  0  0  0  0
   -1.5193   -0.8328   -1.3539 N   0  0  0  0  0  0  0  0  0  0  0  0
    0.2198   -0.0328    1.2153 N   0  0  0  0  0  0  0  0  0  0  0  0
   -5.1303   -0.3456   -2.7330 F   0  0  0  0  0  0  0  0  0  0  0  0
   -3.5364   -0.4709   -4.2621 F   0  0  0  0  0  0  0  0  0  0  0  0
    4.9810   -0.3738    4.6267 H   0  0  0  0  0  0  0  0  0  0  0  0
    6.2086   -0.6824    2.5470 H   0  0  0  0  0  0  0  0  0  0  0  0
    7.3079    0.4686    3.2688 H   0  0  0  0  0  0  0  0  0  0  0  0
    6.6672    2.7564    3.5368 H   0  0  0  0  0  0  0  0  0  0  0  0
    5.1677    4.5648    2.9304 H   0  0  0  0  0  0  0  0  0  0  0  0
    3.0076    4.0708    1.9525 H   0  0  0  0  0  0  0  0  0  0  0  0
    1.8887    3.1958    0.0282 H   0  0  0  0  0  0  0  0  0  0  0  0
   -0.1682    2.3971   -1.0195 H   0  0  0  0  0  0  0  0  0  0  0  0
   -2.7798   -2.5728   -3.0321 H   0  0  0  0  0  0  0  0  0  0  0  0
   -5.0432   -2.3813   -1.0575 H   0  0  0  0  0  0  0  0  0  0  0  0
   -3.7664   -3.5746   -1.0586 H   0  0  0  0  0  0  0  0  0  0  0  0
   -6.7123   -2.4582   -2.7821 H   0  0  0  0  0  0  0  0  0  0  0  0
   -6.6017   -3.7060   -4.0007 H   0  0  0  0  0  0  0  0  0  0  0  0
   -5.9106   -1.4797   -4.8551 H   0  0  0  0  0  0  0  0  0  0  0  0
   -4.6255   -2.6605   -4.9467 H   0  0  0  0  0  0  0  0  0  0  0  0
    1.7605   -0.1278    2.5654 H   0  0  0  0  0  0  0  0  0  0  0  0
    3.8488   -0.0374    2.1648 H   0  0  0  0  0  0  0  0  0  0  0  0
  1 28  1  0  0  0  0
  4  1  1  0  0  0  0
  4  5  1  0  0  0  0
  4 29  1  0  0  0  0
  4 30  1  0  0  0  0
  5 22  1  0  0  0  0
  5  6  2  0  0  0  0
  6  7  1  0  0  0  0
  6 31  1  0  0  0  0
  7 32  1  0  0  0  0
  7  8  2  0  0  0  0
  8  9  1  0  0  0  0
  8 33  1  0  0  0  0
  9 10  1  0  0  0  0
  9 22  2  0  0  0  0
 10 21  1  0  0  0  0
 10 11  2  0  0  0  0
 11 12  1  0  0  0  0
 11 34  1  0  0  0  0
 12 35  1  0  0  0  0
 12 13  2  0  0  0  0
 13 14  1  0  0  0  0
 13 25  1  0  0  0  0
 14 24  1  0  0  0  0
 14 23  2  0  0  0  0
 15  2  1  0  0  0  0
 15 16  1  0  0  0  0
 15 24  2  0  0  0  0
 16 17  1  0  0  0  0
 16 20  1  0  0  0  0
 16 36  1  6  0  0  0
 17  3  1  0  0  0  0
 17 37  1  0  0  0  0
 17 38  1  0  0  0  0
 18  3  1  0  0  0  0
 18 19  1  0  0  0  0
 18 39  1  0  0  0  0
 18 40  1  0  0  0  0
 19 20  1  0  0  0  0
 19 41  1  0  0  0  0
 19 42  1  0  0  0  0
 20 26  1  0  0  0  0
 20 27  1  0  0  0  0
 21 43  1  0  0  0  0
 21 25  2  0  0  0  0
 22 44  1  0  0  0  0
 23  2  1  0  0  0  0
M  END
>  <score>
0.43982893228530884

$$$$
PV-003475305655
 OpenBabel08202115463D

 57 59  0  0  0  0  0  0  0  0999 V2000
    6.0658   -0.5107    2.7917 C   0  0  0  0  0  0  0  0  0  0  0  0
    5.3218    0.7994    2.5908 C   0  0  1  0  0  0  0  0  0  0  0  0
    3.8111    0.6535    2.6062 C   0  0  0  0  0  0  0  0  0  0  0  0
    1.7606    1.1383    1.3469 C   0  0  1  0  0  0  0  0  0  0  0  0
    1.2119    2.4833    0.8210 C   0  0  0  0  0  0  0  0  0  0  0  0
    0.3221    1.7264   -0.2122 C   0  0  2  0  0  0  0  0  0  0  0  0
   -1.1233    1.5634    0.1987 C   0  0  0  0  0  0  0  0  0  0  0  0
   -2.1486   -0.5965   -0.4662 C   0  0  0  0  0  0  0  0  0  0  0  0
   -3.1073   -1.2583   -1.4468 C   0  0  1  0  0  0  0  0  0  0  0  0
   -4.1857   -0.2494   -1.8949 C   0  0  0  0  0  0  0  0  0  0  0  0
   -5.1654   -0.9621   -2.8328 C   0  0  0  0  0  0  0  0  0  0  0  0
   -4.7277   -2.4204   -2.9975 C   0  0  1  0  0  0  0  0  0  0  0  0
   -5.7061   -3.1324   -3.9257 C   0  0  0  0  0  0  0  0  0  0  0  0
   -3.3275   -2.4660   -3.6164 C   0  0  0  0  0  0  0  0  0  0  0  0
   -2.3433   -1.7563   -2.6792 C   0  0  0  0  0  0  0  0  0  0  0  0
   -3.8041   -2.4509   -0.7823 C   0  0  0  0  0  0  0  0  0  0  0  0
    1.2127    0.4835    0.0442 C   0  0  0  0  0  0  0  0  0  0  0  0
    5.7885    1.8399    3.5957 C   0  0  1  0  0  0  0  0  0  0  0  0
    5.0747    3.1674    3.3988 C   0  0  0  0  0  0  0  0  0  0  0  0
    3.2191    0.1761    3.5733 O   0  0  0  0  0  0  0  0  0  0  0  0
   -1.6732   -1.2198    0.4793 O   0  0  0  0  0  0  0  0  0  0  0  0
   -4.7009   -3.0549   -1.7171 O   0  0  0  0  0  0  0  0  0  0  0  0
    5.5077    1.3651    4.9123 O   0  0  0  0  0  0  0  0  0  0  0  0
    3.2184    1.0871    1.4901 N   0  0  0  0  0  0  0  0  0  0  0  0
   -1.8685    0.6855   -0.7053 N   0  0  0  0  0  0  0  0  0  0  0  0
    5.7234   -1.2293    2.0766 H   0  0  0  0  0  0  0  0  0  0  0  0
    5.8827   -0.8767    3.7804 H   0  0  0  0  0  0  0  0  0  0  0  0
    7.1152   -0.3485    2.6596 H   0  0  0  0  0  0  0  0  0  0  0  0
    5.5892    1.1628    1.6206 H   0  0  0  0  0  0  0  0  0  0  0  0
    3.7778    1.3811    0.7411 H   0  0  0  0  0  0  0  0  0  0  0  0
    1.3008    0.7908    2.2484 H   0  0  0  0  0  0  0  0  0  0  0  0
    1.9546    3.1130    0.3774 H   0  0  0  0  0  0  0  0  0  0  0  0
    0.6579    3.0412    1.5467 H   0  0  0  0  0  0  0  0  0  0  0  0
    0.3686    2.1117   -1.2094 H   0  0  0  0  0  0  0  0  0  0  0  0
   -1.5893    2.5266    0.2028 H   0  0  0  0  0  0  0  0  0  0  0  0
   -1.1548    1.1472    1.1840 H   0  0  0  0  0  0  0  0  0  0  0  0
   -2.1855    1.0687   -1.5498 H   0  0  0  0  0  0  0  0  0  0  0  0
   -4.7109    0.1200   -1.0389 H   0  0  0  0  0  0  0  0  0  0  0  0
   -3.7234    0.5667   -2.4098 H   0  0  0  0  0  0  0  0  0  0  0  0
   -6.1501   -0.9283   -2.4156 H   0  0  0  0  0  0  0  0  0  0  0  0
   -5.1649   -0.4777   -3.7869 H   0  0  0  0  0  0  0  0  0  0  0  0
   -5.4181   -4.1577   -4.0296 H   0  0  0  0  0  0  0  0  0  0  0  0
   -5.6947   -2.6600   -4.8857 H   0  0  0  0  0  0  0  0  0  0  0  0
   -6.6919   -3.0791   -3.5131 H   0  0  0  0  0  0  0  0  0  0  0  0
   -3.0266   -3.4843   -3.7477 H   0  0  0  0  0  0  0  0  0  0  0  0
   -3.3387   -1.9716   -4.5653 H   0  0  0  0  0  0  0  0  0  0  0  0
   -1.8987   -0.9258   -3.1867 H   0  0  0  0  0  0  0  0  0  0  0  0
   -1.5785   -2.4405   -2.3760 H   0  0  0  0  0  0  0  0  0  0  0  0
   -4.3526   -2.1136    0.0723 H   0  0  0  0  0  0  0  0  0  0  0  0
   -3.0711   -3.1678   -0.4760 H   0  0  0  0  0  0  0  0  0  0  0  0
    1.9567    0.3178   -0.7068 H   0  0  0  0  0  0  0  0  0  0  0  0
    0.6634   -0.4200    0.2082 H   0  0  0  0  0  0  0  0  0  0  0  0
    6.8409    1.9911    3.4746 H   0  0  0  0  0  0  0  0  0  0  0  0
    5.5574    3.9227    3.9830 H   0  0  0  0  0  0  0  0  0  0  0  0
    4.0552    3.0734    3.7098 H   0  0  0  0  0  0  0  0  0  0  0  0
    5.1088    3.4405    2.3648 H   0  0  0  0  0  0  0  0  0  0  0  0
    4.5629    1.4137    5.0757 H   0  0  0  0  0  0  0  0  0  0  0  0
  1  2  1  0  0  0  0
  1 26  1  0  0  0  0
  1 27  1  0  0  0  0
  1 28  1  0  0  0  0
  2  3  1  0  0  0  0
  2 18  1  0  0  0  0
  2 29  1  6  0  0  0
  3 24  1  0  0  0  0
  3 20  2  0  0  0  0
  4 24  1  0  0  0  0
  4  5  1  0  0  0  0
  4 17  1  0  0  0  0
  4 31  1  1  0  0  0
  5  6  1  0  0  0  0
  5 32  1  0  0  0  0
  5 33  1  0  0  0  0
  6  7  1  0  0  0  0
  6 17  1  0  0  0  0
  6 34  1  6  0  0  0
  7 25  1  0  0  0  0
  7 35  1  0  0  0  0
  7 36  1  0  0  0  0
  8 25  1  0  0  0  0
  8 21  2  0  0  0  0
  9  8  1  1  0  0  0
  9 10  1  0  0  0  0
  9 15  1  0  0  0  0
  9 16  1  0  0  0  0
 10 11  1  0  0  0  0
 10 38  1  0  0  0  0
 10 39  1  0  0  0  0
 11 12  1  0  0  0  0
 11 40  1  0  0  0  0
 11 41  1  0  0  0  0
 12 13  1  6  0  0  0
 12 14  1  0  0  0  0
 12 22  1  0  0  0  0
 13 42  1  0  0  0  0
 13 43  1  0  0  0  0
 13 44  1  0  0  0  0
 14 15  1  0  0  0  0
 14 45  1  0  0  0  0
 14 46  1  0  0  0  0
 15 47  1  0  0  0  0
 15 48  1  0  0  0  0
 16 22  1  0  0  0  0
 16 49  1  0  0  0  0
 16 50  1  0  0  0  0
 17 51  1  0  0  0  0
 17 52  1  0  0  0  0
 18 19  1  0  0  0  0
 18 23  1  0  0  0  0
 18 53  1  6  0  0  0
 19 54  1  0  0  0  0
 19 55  1  0  0  0  0
 19 56  1  0  0  0  0
 23 57  1  0  0  0  0
 24 30  1  0  0  0  0
 25 37  1  0  0  0  0
M  END
>  <score>
0.439830482006073

$$$$
Z4350427133
 OpenBabel08202115463D

 55 57  0  0  0  0  0  0  0  0999 V2000
    2.6672    2.8403    2.6233 C   0  0  0  0  0  0  0  0  0  0  0  0
    3.1253    1.8075    1.6519 C   0  0  0  0  0  0  0  0  0  0  0  0
    2.4318    1.1531    0.6618 C   0  0  0  0  0  0  0  0  0  0  0  0
    0.3186    0.3123   -0.1791 C   0  0  0  0  0  0  0  0  0  0  0  0
   -1.1214    0.6600   -0.5028 C   0  0  1  0  0  0  0  0  0  0  0  0
   -1.6049    0.6450   -1.9557 C   0  0  0  0  0  0  0  0  0  0  0  0
   -2.0793   -0.4259   -0.9798 C   0  0  2  0  0  0  0  0  0  0  0  0
   -3.5057   -0.7193   -0.5021 C   0  0  0  0  0  0  0  0  0  0  0  0
   -3.3764   -2.0756   -1.2177 C   0  0  2  0  0  0  0  0  0  0  0  0
   -5.2294   -2.2607   -2.7198 C   0  0  0  0  0  0  0  0  0  0  0  0
   -5.6802   -3.6351   -2.2057 C   0  0  0  0  0  0  0  0  0  0  0  0
   -5.4531   -2.1847   -4.2382 C   0  0  0  0  0  0  0  0  0  0  0  0
   -5.9802   -1.1536   -1.9152 C   0  0  0  0  0  0  0  0  0  0  0  0
   -1.8539   -1.9407   -1.0392 C   0  0  0  0  0  0  0  0  0  0  0  0
    3.3644    0.2942    0.0646 C   0  0  0  0  0  0  0  0  0  0  0  0
    5.4998    1.5885    2.5757 C   0  0  0  0  0  0  0  0  0  0  0  0
    5.6102    3.0750    2.8735 C   0  0  0  0  0  0  0  0  0  0  0  0
    6.7688    1.1113    1.8885 C   0  0  0  0  0  0  0  0  0  0  0  0
    5.2870    0.7988    3.8570 C   0  0  0  0  0  0  0  0  0  0  0  0
    1.0627    1.3132    0.3177 N   0  0  0  0  0  0  0  0  0  0  0  0
    4.5615    0.4010    0.6488 N   0  0  0  0  0  0  0  0  0  0  0  0
    4.3955    1.3392    1.6160 N   0  0  0  0  0  0  0  0  0  0  0  0
    0.7594   -0.8209   -0.3665 O   0  0  0  0  0  0  0  0  0  0  0  0
   -3.8201   -2.0787   -2.5753 O   0  0  0  0  0  0  0  0  0  0  0  0
    3.1745    3.7624    2.4301 H   0  0  0  0  0  0  0  0  0  0  0  0
    2.8860    2.5151    3.6190 H   0  0  0  0  0  0  0  0  0  0  0  0
    1.6123    2.9851    2.5185 H   0  0  0  0  0  0  0  0  0  0  0  0
    0.6445    2.1898    0.4482 H   0  0  0  0  0  0  0  0  0  0  0  0
   -1.4648    1.4199    0.1677 H   0  0  0  0  0  0  0  0  0  0  0  0
   -2.2862    1.3944   -2.3008 H   0  0  0  0  0  0  0  0  0  0  0  0
   -0.9267    0.3892   -2.7428 H   0  0  0  0  0  0  0  0  0  0  0  0
   -3.6189   -0.7817    0.5600 H   0  0  0  0  0  0  0  0  0  0  0  0
   -4.2555   -0.0702   -0.9038 H   0  0  0  0  0  0  0  0  0  0  0  0
   -3.8163   -2.8999   -0.6962 H   0  0  0  0  0  0  0  0  0  0  0  0
   -5.1586   -4.4037   -2.7367 H   0  0  0  0  0  0  0  0  0  0  0  0
   -6.7330   -3.7460   -2.3610 H   0  0  0  0  0  0  0  0  0  0  0  0
   -5.4631   -3.7135   -1.1608 H   0  0  0  0  0  0  0  0  0  0  0  0
   -4.8631   -2.9336   -4.7240 H   0  0  0  0  0  0  0  0  0  0  0  0
   -5.1640   -1.2175   -4.5930 H   0  0  0  0  0  0  0  0  0  0  0  0
   -6.4878   -2.3501   -4.4548 H   0  0  0  0  0  0  0  0  0  0  0  0
   -7.0131   -1.1473   -2.1946 H   0  0  0  0  0  0  0  0  0  0  0  0
   -5.5466   -0.1996   -2.1317 H   0  0  0  0  0  0  0  0  0  0  0  0
   -5.8956   -1.3549   -0.8677 H   0  0  0  0  0  0  0  0  0  0  0  0
   -1.2732   -2.2752   -1.8734 H   0  0  0  0  0  0  0  0  0  0  0  0
   -1.4679   -2.3722   -0.1394 H   0  0  0  0  0  0  0  0  0  0  0  0
    3.1525   -0.3430   -0.7296 H   0  0  0  0  0  0  0  0  0  0  0  0
    4.7324    3.4019    3.3906 H   0  0  0  0  0  0  0  0  0  0  0  0
    5.7054    3.6163    1.9554 H   0  0  0  0  0  0  0  0  0  0  0  0
    6.4707    3.2532    3.4841 H   0  0  0  0  0  0  0  0  0  0  0  0
    6.7347    0.0480    1.7738 H   0  0  0  0  0  0  0  0  0  0  0  0
    7.6178    1.3787    2.4823 H   0  0  0  0  0  0  0  0  0  0  0  0
    6.8472    1.5713    0.9256 H   0  0  0  0  0  0  0  0  0  0  0  0
    4.4478    1.1980    4.3873 H   0  0  0  0  0  0  0  0  0  0  0  0
    6.1619    0.8698    4.4688 H   0  0  0  0  0  0  0  0  0  0  0  0
    5.1015   -0.2272    3.6166 H   0  0  0  0  0  0  0  0  0  0  0  0
  1  2  1  0  0  0  0
  1 25  1  0  0  0  0
  1 26  1  0  0  0  0
  1 27  1  0  0  0  0
  2 22  1  0  0  0  0
  2  3  2  0  0  0  0
  3 20  1  0  0  0  0
  3 15  1  0  0  0  0
  4 20  1  0  0  0  0
  4  5  1  0  0  0  0
  4 23  2  0  0  0  0
  5  6  1  0  0  0  0
  5  7  1  0  0  0  0
  5 29  1  1  0  0  0
  6 30  1  0  0  0  0
  6 31  1  0  0  0  0
  7  6  1  6  0  0  0
  7  8  1  0  0  0  0
  7 14  1  0  0  0  0
  8  9  1  0  0  0  0
  8 32  1  0  0  0  0
  8 33  1  0  0  0  0
  9 24  1  0  0  0  0
  9 14  1  0  0  0  0
  9 34  1  1  0  0  0
 10 24  1  0  0  0  0
 10 11  1  0  0  0  0
 10 12  1  0  0  0  0
 10 13  1  0  0  0  0
 11 35  1  0  0  0  0
 11 36  1  0  0  0  0
 11 37  1  0  0  0  0
 12 38  1  0  0  0  0
 12 39  1  0  0  0  0
 12 40  1  0  0  0  0
 13 41  1  0  0  0  0
 13 42  1  0  0  0  0
 13 43  1  0  0  0  0
 14 44  1  0  0  0  0
 14 45  1  0  0  0  0
 15 46  1  0  0  0  0
 15 21  2  0  0  0  0
 16 22  1  0  0  0  0
 16 17  1  0  0  0  0
 16 18  1  0  0  0  0
 16 19  1  0  0  0  0
 17 47  1  0  0  0  0
 17 48  1  0  0  0  0
 17 49  1  0  0  0  0
 18 50  1  0  0  0  0
 18 51  1  0  0  0  0
 18 52  1  0  0  0  0
 19 53  1  0  0  0  0
 19 54  1  0  0  0  0
 19 55  1  0  0  0  0
 20 28  1  0  0  0  0
 21 22  1  0  0  0  0
M  END
>  <score>
0.43987339735031128

$$$$
Z3815285519
 OpenBabel08202115463D

 40 42  0  0  0  0  0  0  0  0999 V2000
    5.9098    1.0444    1.6530 C   0  0  0  0  0  0  0  0  0  0  0  0
    3.5042    1.0733    1.2186 C   0  0  0  0  0  0  0  0  0  0  0  0
    2.2103    0.2718    1.2717 C   0  0  0  0  0  0  0  0  0  0  0  0
    1.0343    1.0355    0.7927 C   0  0  0  0  0  0  0  0  0  0  0  0
   -0.8304    1.3317   -0.1876 C   0  0  0  0  0  0  0  0  0  0  0  0
   -2.0356    0.9175   -0.9583 C   0  0  0  0  0  0  0  0  0  0  0  0
   -3.5282   -0.3336   -1.9705 C   0  0  0  0  0  0  0  0  0  0  0  0
   -4.4269   -1.3263   -2.6037 C   0  0  0  0  0  0  0  0  0  0  0  0
   -5.2071   -0.9497   -3.6858 C   0  0  0  0  0  0  0  0  0  0  0  0
   -6.0528   -1.8669   -4.2803 C   0  0  0  0  0  0  0  0  0  0  0  0
   -6.1171   -3.1649   -3.7980 C   0  0  0  0  0  0  0  0  0  0  0  0
   -5.3392   -3.5403   -2.7191 C   0  0  0  0  0  0  0  0  0  0  0  0
   -4.4908   -2.6204   -2.1226 C   0  0  0  0  0  0  0  0  0  0  0  0
   -2.3784   -0.4223   -1.2793 C   0  0  0  0  0  0  0  0  0  0  0  0
    4.3485    0.3461    3.4003 C   0  0  0  0  0  0  0  0  0  0  0  0
    4.0909    1.7184    4.0091 C   0  0  0  0  0  0  0  0  0  0  0  0
    4.6090    0.4124    1.9458 N   0  0  0  0  0  0  0  0  0  0  0  0
    0.7494    2.2845    0.9261 N   0  0  0  0  0  0  0  0  0  0  0  0
   -0.4791    2.4822    0.2732 N   0  0  0  0  0  0  0  0  0  0  0  0
   -2.9235    1.7626   -1.4303 N   0  0  0  0  0  0  0  0  0  0  0  0
   -3.8937    0.9682   -2.0788 O   0  0  0  0  0  0  0  0  0  0  0  0
    0.0762    0.3540    0.0966 O   0  0  0  0  0  0  0  0  0  0  0  0
    4.1423    1.6920    5.3420 F   0  0  0  0  0  0  0  0  0  0  0  0
    2.8902    2.1953    3.6766 F   0  0  0  0  0  0  0  0  0  0  0  0
    4.9906    2.6174    3.6046 F   0  0  0  0  0  0  0  0  0  0  0  0
    6.6810    0.5450    2.2013 H   0  0  0  0  0  0  0  0  0  0  0  0
    5.8782    2.0746    1.9402 H   0  0  0  0  0  0  0  0  0  0  0  0
    6.1134    0.9719    0.6050 H   0  0  0  0  0  0  0  0  0  0  0  0
    3.7912    1.1944    0.1949 H   0  0  0  0  0  0  0  0  0  0  0  0
    3.3311    2.0339    1.6569 H   0  0  0  0  0  0  0  0  0  0  0  0
    2.0344   -0.0244    2.2847 H   0  0  0  0  0  0  0  0  0  0  0  0
    2.3234   -0.5986    0.6596 H   0  0  0  0  0  0  0  0  0  0  0  0
   -5.1560    0.0230   -4.0503 H   0  0  0  0  0  0  0  0  0  0  0  0
   -6.6412   -1.5833   -5.0897 H   0  0  0  0  0  0  0  0  0  0  0  0
   -6.7506   -3.8562   -4.2480 H   0  0  0  0  0  0  0  0  0  0  0  0
   -5.3903   -4.5130   -2.3546 H   0  0  0  0  0  0  0  0  0  0  0  0
   -3.9025   -2.9040   -1.3133 H   0  0  0  0  0  0  0  0  0  0  0  0
   -1.8535   -1.2857   -1.0330 H   0  0  0  0  0  0  0  0  0  0  0  0
    5.1993   -0.0887    3.8819 H   0  0  0  0  0  0  0  0  0  0  0  0
    3.4898   -0.2701    3.5674 H   0  0  0  0  0  0  0  0  0  0  0  0
  1 17  1  0  0  0  0
  1 26  1  0  0  0  0
  1 27  1  0  0  0  0
  1 28  1  0  0  0  0
  2 17  1  0  0  0  0
  2  3  1  0  0  0  0
  2 29  1  0  0  0  0
  2 30  1  0  0  0  0
  3  4  1  0  0  0  0
  3 31  1  0  0  0  0
  3 32  1  0  0  0  0
  4 22  1  0  0  0  0
  4 18  2  0  0  0  0
  5  6  1  0  0  0  0
  5 22  1  0  0  0  0
  5 19  2  0  0  0  0
  6 14  1  0  0  0  0
  6 20  2  0  0  0  0
  7 21  1  0  0  0  0
  7  8  1  0  0  0  0
  7 14  2  0  0  0  0
  8 13  1  0  0  0  0
  8  9  2  0  0  0  0
  9 10  1  0  0  0  0
  9 33  1  0  0  0  0
 10 34  1  0  0  0  0
 10 11  2  0  0  0  0
 11 12  1  0  0  0  0
 11 35  1  0  0  0  0
 12 36  1  0  0  0  0
 12 13  2  0  0  0  0
 13 37  1  0  0  0  0
 14 38  1  0  0  0  0
 15 17  1  0  0  0  0
 15 16  1  0  0  0  0
 15 39  1  0  0  0  0
 15 40  1  0  0  0  0
 16 23  1  0  0  0  0
 16 24  1  0  0  0  0
 16 25  1  0  0  0  0
 18 19  1  0  0  0  0
 20 21  1  0  0  0  0
M  END
>  <score>
0.43992310762405396

$$$$
PV-003714409283
 OpenBabel08202115463D

 51 54  0  0  0  0  0  0  0  0999 V2000
   -6.6444   -4.2532   -5.4448 N   0  0  0  0  0  0  0  0  0  0  0  0
   -3.0734   -0.5812   -1.9827 N   0  0  0  0  0  0  0  0  0  0  0  0
    1.1043    1.3739    1.0304 N   0  0  0  0  0  0  0  0  0  0  0  0
   -4.3652   -2.2247   -3.6848 N   0  0  0  0  0  0  0  0  0  0  0  0
   -4.9572   -3.0292   -4.5944 N   0  0  0  0  0  0  0  0  0  0  0  0
   -6.2156   -3.4189   -4.4084 C   0  0  0  0  0  0  0  0  0  0  0  0
   -6.9792   -3.0226   -3.3037 C   0  0  0  0  0  0  0  0  0  0  0  0
   -6.3803   -2.2045   -2.3816 C   0  0  0  0  0  0  0  0  0  0  0  0
   -5.0508   -1.8352   -2.6138 C   0  0  0  0  0  0  0  0  0  0  0  0
   -4.3086   -0.9706   -1.6635 C   0  0  0  0  0  0  0  0  0  0  0  0
   -2.2556    0.3266   -1.1923 C   0  0  2  0  0  0  0  0  0  0  0  0
   -1.2150    1.1486   -2.0132 C   0  0  0  0  0  0  0  0  0  0  0  0
   -0.1128    0.7901   -0.9917 C   0  0  1  0  0  0  0  0  0  0  0  0
    0.1829    1.8695    0.0188 C   0  0  0  0  0  0  0  0  0  0  0  0
    2.4282    1.3734    0.8510 C   0  0  0  0  0  0  0  0  0  0  0  0
    3.2430    0.7722    1.9738 C   0  0  1  0  0  0  0  0  0  0  0  0
    4.7491    0.7847    1.6307 C   0  0  0  0  0  0  0  0  0  0  0  0
    5.3439    1.6672    2.7443 C   0  0  1  0  0  0  0  0  0  0  0  0
    4.2296    2.7279    2.9518 C   0  0  0  0  0  0  0  0  0  0  0  0
    4.3044    1.1726    3.0010 C   0  0  1  0  0  0  0  0  0  0  0  0
    3.7745    0.8676    4.3945 C   0  0  0  0  0  0  0  0  0  0  0  0
    5.2787    0.8743    4.0516 C   0  0  1  0  0  0  0  0  0  0  0  0
   -1.0524   -0.3409   -0.4777 C   0  0  0  0  0  0  0  0  0  0  0  0
   -4.8270   -0.6200   -0.5984 O   0  0  0  0  0  0  0  0  0  0  0  0
    2.9679    1.8285   -0.1566 O   0  0  0  0  0  0  0  0  0  0  0  0
    5.7823   -0.4361    3.9199 O   0  0  0  0  0  0  0  0  0  0  0  0
   -7.5435   -4.6424   -5.4204 H   0  0  0  0  0  0  0  0  0  0  0  0
   -6.0460   -4.4489   -6.1958 H   0  0  0  0  0  0  0  0  0  0  0  0
   -7.9636   -3.3373   -3.1873 H   0  0  0  0  0  0  0  0  0  0  0  0
   -6.8944   -1.8709   -1.5414 H   0  0  0  0  0  0  0  0  0  0  0  0
   -2.6876   -0.9330   -2.8121 H   0  0  0  0  0  0  0  0  0  0  0  0
   -2.8853    0.9119   -0.5553 H   0  0  0  0  0  0  0  0  0  0  0  0
   -1.4330    2.1946   -2.0694 H   0  0  0  0  0  0  0  0  0  0  0  0
   -1.0375    0.7674   -2.9971 H   0  0  0  0  0  0  0  0  0  0  0  0
    0.8029    0.4465   -1.4257 H   0  0  0  0  0  0  0  0  0  0  0  0
   -0.7292    2.1718    0.4897 H   0  0  0  0  0  0  0  0  0  0  0  0
    0.6229    2.7082   -0.4790 H   0  0  0  0  0  0  0  0  0  0  0  0
    0.7410    1.0285    1.8725 H   0  0  0  0  0  0  0  0  0  0  0  0
    2.9034   -0.2238    2.1679 H   0  0  0  0  0  0  0  0  0  0  0  0
    5.1596   -0.2029    1.6609 H   0  0  0  0  0  0  0  0  0  0  0  0
    4.9211    1.2137    0.6657 H   0  0  0  0  0  0  0  0  0  0  0  0
    6.3060    2.0778    2.5186 H   0  0  0  0  0  0  0  0  0  0  0  0
    4.4074    3.3784    3.7825 H   0  0  0  0  0  0  0  0  0  0  0  0
    4.0262    3.3114    2.0783 H   0  0  0  0  0  0  0  0  0  0  0  0
    5.2798    0.7798    2.8024 H   0  0  0  0  0  0  0  0  0  0  0  0
    3.3949   -0.1318    4.4402 H   0  0  0  0  0  0  0  0  0  0  0  0
    3.5900    1.3626    5.3250 H   0  0  0  0  0  0  0  0  0  0  0  0
    5.8064    1.4098    4.8129 H   0  0  0  0  0  0  0  0  0  0  0  0
    5.2632   -0.9152    3.2698 H   0  0  0  0  0  0  0  0  0  0  0  0
   -1.1451   -0.3802    0.5875 H   0  0  0  0  0  0  0  0  0  0  0  0
   -0.8086   -1.3136   -0.8511 H   0  0  0  0  0  0  0  0  0  0  0  0
  1 27  1  0  0  0  0
  1 28  1  0  0  0  0
  2 31  1  0  0  0  0
  3 38  1  0  0  0  0
  4  5  2  0  0  0  0
  6  1  1  0  0  0  0
  6  5  1  0  0  0  0
  6  7  2  0  0  0  0
  7  8  1  0  0  0  0
  7 29  1  0  0  0  0
  8 30  1  0  0  0  0
  8  9  2  0  0  0  0
  9 10  1  0  0  0  0
  9  4  1  0  0  0  0
 10  2  1  0  0  0  0
 10 24  2  0  0  0  0
 11  2  1  0  0  0  0
 11 12  1  0  0  0  0
 11 23  1  0  0  0  0
 11 32  1  1  0  0  0
 12 13  1  0  0  0  0
 12 33  1  0  0  0  0
 12 34  1  0  0  0  0
 13 14  1  0  0  0  0
 13 23  1  0  0  0  0
 13 35  1  6  0  0  0
 14  3  1  0  0  0  0
 14 36  1  0  0  0  0
 14 37  1  0  0  0  0
 15  3  1  0  0  0  0
 15 16  1  0  0  0  0
 15 25  2  0  0  0  0
 16 17  1  0  0  0  0
 16 20  1  0  0  0  0
 16 39  1  1  0  0  0
 17 18  1  0  0  0  0
 17 40  1  0  0  0  0
 17 41  1  0  0  0  0
 18 19  1  0  0  0  0
 18 22  1  0  0  0  0
 18 42  1  6  0  0  0
 19 20  1  0  0  0  0
 19 43  1  0  0  0  0
 19 44  1  0  0  0  0
 20 21  1  0  0  0  0
 20 45  1  6  0  0  0
 21 22  1  0  0  0  0
 21 46  1  0  0  0  0
 21 47  1  0  0  0  0
 22 26  1  0  0  0  0
 22 48  1  1  0  0  0
 23 50  1  0  0  0  0
 23 51  1  0  0  0  0
 26 49  1  0  0  0  0
M  END
>  <score>
0.43992882966995239

$$$$
PV-003153798386
 OpenBabel08202115463D

 58 59  0  0  0  0  0  0  0  0999 V2000
   -4.8714   -3.9568   -2.2645 C   0  0  0  0  0  0  0  0  0  0  0  0
   -4.9368   -2.4400   -2.1909 C   0  0  1  0  0  0  0  0  0  0  0  0
   -3.5945   -1.8032   -2.5040 C   0  0  0  0  0  0  0  0  0  0  0  0
   -2.1523    0.2270   -2.2076 C   0  0  0  0  0  0  0  0  0  0  0  0
   -1.3616    0.2011   -0.8920 C   0  0  0  0  0  0  0  0  0  0  0  0
   -0.2212    1.1760   -0.6974 C   0  0  0  0  0  0  0  0  0  0  0  0
    1.3830    1.7614    1.0435 C   0  0  0  0  0  0  0  0  0  0  0  0
    2.2204    1.3357    2.2215 C   0  0  0  0  0  0  0  0  0  0  0  0
    3.7590    1.9922    3.9311 C   0  0  0  0  0  0  0  0  0  0  0  0
    4.6342    0.7792    3.6532 C   0  0  0  0  0  0  0  0  0  0  0  0
    5.6388    1.0827    2.5642 C   0  0  1  0  0  0  0  0  0  0  0  0
    6.3831   -0.1731    2.2126 C   0  0  0  0  0  0  0  0  0  0  0  0
    4.9338    1.6060    1.3336 C   0  0  0  0  0  0  0  0  0  0  0  0
    4.0435    2.7875    1.6806 C   0  0  0  0  0  0  0  0  0  0  0  0
   -1.1966   -1.1483   -0.2588 C   0  0  0  0  0  0  0  0  0  0  0  0
   -2.1814   -0.1719    0.3033 C   0  0  0  0  0  0  0  0  0  0  0  0
   -6.0264   -1.9120   -3.1097 C   0  0  1  0  0  0  0  0  0  0  0  0
   -6.0902   -0.3933   -3.1175 C   0  0  0  0  0  0  0  0  0  0  0  0
   -2.7347   -2.4198   -3.1319 O   0  0  0  0  0  0  0  0  0  0  0  0
    1.5071    2.8830    0.5536 O   0  0  0  0  0  0  0  0  0  0  0  0
    7.2322    0.0695    1.0950 O   0  0  0  0  0  0  0  0  0  0  0  0
   -5.8361   -2.3034   -4.4724 O   0  0  0  0  0  0  0  0  0  0  0  0
   -3.3754   -0.5507   -2.0758 N   0  0  0  0  0  0  0  0  0  0  0  0
    0.4952    0.8769    0.5438 N   0  0  0  0  0  0  0  0  0  0  0  0
    3.0789    2.4304    2.7167 N   0  0  0  0  0  0  0  0  0  0  0  0
   -5.8094   -4.3701   -1.9574 H   0  0  0  0  0  0  0  0  0  0  0  0
   -4.0966   -4.3120   -1.6177 H   0  0  0  0  0  0  0  0  0  0  0  0
   -4.6623   -4.2562   -3.2703 H   0  0  0  0  0  0  0  0  0  0  0  0
   -5.1985   -2.1734   -1.1882 H   0  0  0  0  0  0  0  0  0  0  0  0
   -4.1240   -0.1093   -1.6229 H   0  0  0  0  0  0  0  0  0  0  0  0
   -2.4017    1.2389   -2.4498 H   0  0  0  0  0  0  0  0  0  0  0  0
   -1.5515   -0.1896   -2.9889 H   0  0  0  0  0  0  0  0  0  0  0  0
   -0.6116    2.1710   -0.6488 H   0  0  0  0  0  0  0  0  0  0  0  0
    0.4550    1.0976   -1.5230 H   0  0  0  0  0  0  0  0  0  0  0  0
    0.3295    0.0324    1.0127 H   0  0  0  0  0  0  0  0  0  0  0  0
    2.8421    0.5169    1.9249 H   0  0  0  0  0  0  0  0  0  0  0  0
    1.5704    1.0226    3.0116 H   0  0  0  0  0  0  0  0  0  0  0  0
    4.3712    2.7897    4.2972 H   0  0  0  0  0  0  0  0  0  0  0  0
    3.0280    1.7353    4.6690 H   0  0  0  0  0  0  0  0  0  0  0  0
    5.1565    0.5109    4.5477 H   0  0  0  0  0  0  0  0  0  0  0  0
    4.0154   -0.0365    3.3426 H   0  0  0  0  0  0  0  0  0  0  0  0
    6.3292    1.8205    2.9162 H   0  0  0  0  0  0  0  0  0  0  0  0
    5.6833   -0.9443    1.9667 H   0  0  0  0  0  0  0  0  0  0  0  0
    6.9753   -0.4815    3.0487 H   0  0  0  0  0  0  0  0  0  0  0  0
    7.8399    0.7830    1.3031 H   0  0  0  0  0  0  0  0  0  0  0  0
    5.6649    1.9169    0.6168 H   0  0  0  0  0  0  0  0  0  0  0  0
    4.3330    0.8255    0.9156 H   0  0  0  0  0  0  0  0  0  0  0  0
    4.6531    3.5931    2.0332 H   0  0  0  0  0  0  0  0  0  0  0  0
    3.5153    3.0969    0.8029 H   0  0  0  0  0  0  0  0  0  0  0  0
   -0.3034   -1.3793    0.2832 H   0  0  0  0  0  0  0  0  0  0  0  0
   -1.5422   -2.0238   -0.7676 H   0  0  0  0  0  0  0  0  0  0  0  0
   -3.2311   -0.3503    0.1969 H   0  0  0  0  0  0  0  0  0  0  0  0
   -1.9923    0.2943    1.2477 H   0  0  0  0  0  0  0  0  0  0  0  0
   -6.9671   -2.2843   -2.7613 H   0  0  0  0  0  0  0  0  0  0  0  0
   -5.1745    0.0006   -3.5063 H   0  0  0  0  0  0  0  0  0  0  0  0
   -6.2357   -0.0376   -2.1189 H   0  0  0  0  0  0  0  0  0  0  0  0
   -6.9054   -0.0740   -3.7327 H   0  0  0  0  0  0  0  0  0  0  0  0
   -6.6879   -2.3595   -4.9116 H   0  0  0  0  0  0  0  0  0  0  0  0
  1  2  1  0  0  0  0
  1 26  1  0  0  0  0
  1 27  1  0  0  0  0
  1 28  1  0  0  0  0
  2  3  1  0  0  0  0
  2 17  1  0  0  0  0
  2 29  1  1  0  0  0
  3 23  1  0  0  0  0
  3 19  2  0  0  0  0
  4 23  1  0  0  0  0
  4  5  1  0  0  0  0
  4 31  1  0  0  0  0
  4 32  1  0  0  0  0
  5  6  1  0  0  0  0
  5 15  1  0  0  0  0
  5 16  1  0  0  0  0
  6 24  1  0  0  0  0
  6 33  1  0  0  0  0
  6 34  1  0  0  0  0
  7 24  1  0  0  0  0
  7  8  1  0  0  0  0
  7 20  2  0  0  0  0
  8 25  1  0  0  0  0
  8 36  1  0  0  0  0
  8 37  1  0  0  0  0
  9 25  1  0  0  0  0
  9 10  1  0  0  0  0
  9 38  1  0  0  0  0
  9 39  1  0  0  0  0
 10 11  1  0  0  0  0
 10 40  1  0  0  0  0
 10 41  1  0  0  0  0
 11 12  1  0  0  0  0
 11 13  1  0  0  0  0
 11 42  1  1  0  0  0
 12 21  1  0  0  0  0
 12 43  1  0  0  0  0
 12 44  1  0  0  0  0
 13 14  1  0  0  0  0
 13 46  1  0  0  0  0
 13 47  1  0  0  0  0
 14 25  1  0  0  0  0
 14 48  1  0  0  0  0
 14 49  1  0  0  0  0
 15 16  1  0  0  0  0
 15 50  1  0  0  0  0
 15 51  1  0  0  0  0
 16 52  1  0  0  0  0
 16 53  1  0  0  0  0
 17 18  1  0  0  0  0
 17 22  1  0  0  0  0
 17 54  1  1  0  0  0
 18 55  1  0  0  0  0
 18 56  1  0  0  0  0
 18 57  1  0  0  0  0
 21 45  1  0  0  0  0
 22 58  1  0  0  0  0
 23 30  1  0  0  0  0
 24 35  1  0  0  0  0
M  END
>  <score>
0.44012486934661865

$$$$
Z4395835068
 OpenBabel08202115463D

 47 50  0  0  0  0  0  0  0  0999 V2000
   -7.7356   -3.0962   -4.3319 C   0  0  0  0  0  0  0  0  0  0  0  0
   -5.4759   -3.2371   -3.1781 C   0  0  0  0  0  0  0  0  0  0  0  0
   -4.5834   -2.2874   -2.7411 C   0  0  0  0  0  0  0  0  0  0  0  0
   -3.2454   -2.4718   -2.1327 C   0  0  0  0  0  0  0  0  0  0  0  0
   -2.6305   -3.6986   -1.9678 C   0  0  0  0  0  0  0  0  0  0  0  0
   -1.3836   -3.6917   -1.3761 C   0  0  0  0  0  0  0  0  0  0  0  0
   -1.4671   -1.4365   -1.1902 C   0  0  0  0  0  0  0  0  0  0  0  0
    0.3215   -0.1601   -0.1173 C   0  0  0  0  0  0  0  0  0  0  0  0
    0.6995    1.1761    0.4055 C   0  0  0  0  0  0  0  0  0  0  0  0
    1.7958    1.3445    1.2332 C   0  0  0  0  0  0  0  0  0  0  0  0
    2.0938    2.6132    1.6908 C   0  0  0  0  0  0  0  0  0  0  0  0
    3.9418    1.6864    2.8737 C   0  0  0  0  0  0  0  0  0  0  0  0
    4.6229    1.8771    4.2198 C   0  0  0  0  0  0  0  0  0  0  0  0
    6.1294    2.0545    3.9690 C   0  0  0  0  0  0  0  0  0  0  0  0
    6.1977    2.3855    2.4884 C   0  0  0  0  0  0  0  0  0  0  0  0
    5.0766    1.5801    1.8371 C   0  0  0  0  0  0  0  0  0  0  0  0
    1.2846    3.6656    1.3042 C   0  0  0  0  0  0  0  0  0  0  0  0
    0.2118    3.4082    0.4720 C   0  0  0  0  0  0  0  0  0  0  0  0
   -5.2044   -1.0559   -2.9901 C   0  0  0  0  0  0  0  0  0  0  0  0
   -6.5550   -2.5715   -3.6541 N   0  0  0  0  0  0  0  0  0  0  0  0
   -0.7804   -2.5617   -0.9788 N   0  0  0  0  0  0  0  0  0  0  0  0
   -0.8500   -0.2374   -0.7776 N   0  0  0  0  0  0  0  0  0  0  0  0
   -0.0908    2.1877    0.0193 N   0  0  0  0  0  0  0  0  0  0  0  0
   -2.6718   -1.3193   -1.7481 N   0  0  0  0  0  0  0  0  0  0  0  0
   -6.4098   -1.2264   -3.5411 N   0  0  0  0  0  0  0  0  0  0  0  0
    1.0476   -1.1258    0.0525 O   0  0  0  0  0  0  0  0  0  0  0  0
    3.0984    2.8103    2.5772 O   0  0  0  0  0  0  0  0  0  0  0  0
   -7.7905   -4.1547   -4.1858 H   0  0  0  0  0  0  0  0  0  0  0  0
   -7.6696   -2.8838   -5.3786 H   0  0  0  0  0  0  0  0  0  0  0  0
   -8.6127   -2.6348   -3.9285 H   0  0  0  0  0  0  0  0  0  0  0  0
   -5.3472   -4.2687   -3.1488 H   0  0  0  0  0  0  0  0  0  0  0  0
   -3.0846   -4.5826   -2.2743 H   0  0  0  0  0  0  0  0  0  0  0  0
   -0.8930   -4.5975   -1.2329 H   0  0  0  0  0  0  0  0  0  0  0  0
   -1.3082    0.6032   -0.9872 H   0  0  0  0  0  0  0  0  0  0  0  0
    2.3841    0.5313    1.5055 H   0  0  0  0  0  0  0  0  0  0  0  0
    3.3558    0.7911    2.8768 H   0  0  0  0  0  0  0  0  0  0  0  0
    4.2309    2.7464    4.7051 H   0  0  0  0  0  0  0  0  0  0  0  0
    4.4562    1.0183    4.8359 H   0  0  0  0  0  0  0  0  0  0  0  0
    6.6632    1.1528    4.1856 H   0  0  0  0  0  0  0  0  0  0  0  0
    6.5250    2.8544    4.5595 H   0  0  0  0  0  0  0  0  0  0  0  0
    6.0447    3.4329    2.3322 H   0  0  0  0  0  0  0  0  0  0  0  0
    7.1465    2.0991    2.0850 H   0  0  0  0  0  0  0  0  0  0  0  0
    5.3691    0.5618    1.6876 H   0  0  0  0  0  0  0  0  0  0  0  0
    4.7862    2.0094    0.9010 H   0  0  0  0  0  0  0  0  0  0  0  0
    1.4797    4.6326    1.6334 H   0  0  0  0  0  0  0  0  0  0  0  0
   -0.3910    4.2051    0.1834 H   0  0  0  0  0  0  0  0  0  0  0  0
   -4.7822   -0.1303   -2.7743 H   0  0  0  0  0  0  0  0  0  0  0  0
  1 20  1  0  0  0  0
  1 28  1  0  0  0  0
  1 29  1  0  0  0  0
  1 30  1  0  0  0  0
  2 20  1  0  0  0  0
  2 31  1  0  0  0  0
  2  3  2  0  0  0  0
  3  4  1  0  0  0  0
  3 19  1  0  0  0  0
  4 24  1  0  0  0  0
  4  5  2  0  0  0  0
  5  6  1  0  0  0  0
  5 32  1  0  0  0  0
  6 33  1  0  0  0  0
  6 21  2  0  0  0  0
  7 21  1  0  0  0  0
  7 22  1  0  0  0  0
  7 24  2  0  0  0  0
  8 22  1  0  0  0  0
  8  9  1  0  0  0  0
  8 26  2  0  0  0  0
  9 23  1  0  0  0  0
  9 10  2  0  0  0  0
 10 11  1  0  0  0  0
 10 35  1  0  0  0  0
 11 27  1  0  0  0  0
 11 17  2  0  0  0  0
 12 27  1  0  0  0  0
 12 13  1  0  0  0  0
 12 16  1  0  0  0  0
 12 36  1  0  0  0  0
 13 14  1  0  0  0  0
 13 37  1  0  0  0  0
 13 38  1  0  0  0  0
 14 15  1  0  0  0  0
 14 39  1  0  0  0  0
 14 40  1  0  0  0  0
 15 16  1  0  0  0  0
 15 41  1  0  0  0  0
 15 42  1  0  0  0  0
 16 43  1  0  0  0  0
 16 44  1  0  0  0  0
 17 18  1  0  0  0  0
 17 45  1  0  0  0  0
 18 46  1  0  0  0  0
 18 23  2  0  0  0  0
 19 47  1  0  0  0  0
 19 25  2  0  0  0  0
 20 25  1  0  0  0  0
 22 34  1  0  0  0  0
M  END
>  <score>
0.44015675783157349

$$$$
Z4139244947
 OpenBabel08202115463D

 54 57  0  0  0  0  0  0  0  0999 V2000
    5.6160    2.4426    1.4313 C   0  0  0  0  0  0  0  0  0  0  0  0
    3.2669    3.0236    0.5509 C   0  0  0  0  0  0  0  0  0  0  0  0
    2.0257    2.3015    0.0949 C   0  0  0  0  0  0  0  0  0  0  0  0
    1.4510    1.2328    0.7607 C   0  0  0  0  0  0  0  0  0  0  0  0
   -0.1795    1.1122   -0.8259 C   0  0  0  0  0  0  0  0  0  0  0  0
   -1.3297   -0.6663   -2.2220 C   0  0  0  0  0  0  0  0  0  0  0  0
   -2.0923   -1.8389   -1.6354 C   0  0  0  0  0  0  0  0  0  0  0  0
   -4.6138   -2.0769   -1.7277 C   0  0  0  0  0  0  0  0  0  0  0  0
   -5.8626   -1.4841   -1.7016 C   0  0  0  0  0  0  0  0  0  0  0  0
   -6.9430   -2.1913   -2.1917 C   0  0  0  0  0  0  0  0  0  0  0  0
   -6.7337   -3.4657   -2.6892 C   0  0  0  0  0  0  0  0  0  0  0  0
   -7.7798   -4.2813   -3.2234 C   0  0  0  0  0  0  0  0  0  0  0  0
   -4.4954   -3.3551   -2.2392 C   0  0  0  0  0  0  0  0  0  0  0  0
   -3.4679   -0.3007   -0.3333 C   0  0  0  0  0  0  0  0  0  0  0  0
   -2.7053    0.8719   -0.9199 C   0  0  0  0  0  0  0  0  0  0  0  0
    0.3952    2.1809   -1.4918 C   0  0  0  0  0  0  0  0  0  0  0  0
    3.7326    0.8740    1.9169 C   0  0  1  0  0  0  0  0  0  0  0  0
    4.8512   -0.2244    1.8373 C   0  0  0  0  0  0  0  0  0  0  0  0
    5.1693   -0.5112    3.3060 C   0  0  0  0  0  0  0  0  0  0  0  0
    3.4990    1.0763    3.4310 C   0  0  0  0  0  0  0  0  0  0  0  0
    4.1891    2.1335    1.2843 N   0  0  0  0  0  0  0  0  0  0  0  0
    0.3446    0.6290    0.3080 N   0  0  0  0  0  0  0  0  0  0  0  0
   -1.3476    0.4701   -1.2999 N   0  0  0  0  0  0  0  0  0  0  0  0
   -3.4499   -1.4371   -1.2554 N   0  0  0  0  0  0  0  0  0  0  0  0
   -8.5938   -4.9671   -3.6587 N   0  0  0  0  0  0  0  0  0  0  0  0
   -5.5295   -4.0543   -2.7167 N   0  0  0  0  0  0  0  0  0  0  0  0
    1.5017    2.7847   -1.0391 N   0  0  0  0  0  0  0  0  0  0  0  0
    4.8180    0.7444    3.9797 N   0  0  0  0  0  0  0  0  0  0  0  0
    5.4670    3.3126    2.0362 H   0  0  0  0  0  0  0  0  0  0  0  0
    6.0925    2.6612    0.4985 H   0  0  0  0  0  0  0  0  0  0  0  0
    6.1585    1.6718    1.9376 H   0  0  0  0  0  0  0  0  0  0  0  0
    3.7735    3.4142   -0.3067 H   0  0  0  0  0  0  0  0  0  0  0  0
    2.9805    3.8292    1.1943 H   0  0  0  0  0  0  0  0  0  0  0  0
    1.8911    0.8887    1.6380 H   0  0  0  0  0  0  0  0  0  0  0  0
   -1.7853   -0.3770   -3.1460 H   0  0  0  0  0  0  0  0  0  0  0  0
   -0.3161   -0.9593   -2.3999 H   0  0  0  0  0  0  0  0  0  0  0  0
   -1.5760   -2.1950   -0.7685 H   0  0  0  0  0  0  0  0  0  0  0  0
   -2.1485   -2.6207   -2.3638 H   0  0  0  0  0  0  0  0  0  0  0  0
   -5.9860   -0.5243   -1.3205 H   0  0  0  0  0  0  0  0  0  0  0  0
   -7.8957   -1.7742   -2.1869 H   0  0  0  0  0  0  0  0  0  0  0  0
   -3.5534   -3.7957   -2.2534 H   0  0  0  0  0  0  0  0  0  0  0  0
   -3.0123   -0.5900    0.5906 H   0  0  0  0  0  0  0  0  0  0  0  0
   -4.4815   -0.0078   -0.1554 H   0  0  0  0  0  0  0  0  0  0  0  0
   -3.2216    1.2279   -1.7869 H   0  0  0  0  0  0  0  0  0  0  0  0
   -2.6490    1.6537   -0.1915 H   0  0  0  0  0  0  0  0  0  0  0  0
   -0.0449    2.5250   -2.3691 H   0  0  0  0  0  0  0  0  0  0  0  0
    2.8371    0.5376    1.4375 H   0  0  0  0  0  0  0  0  0  0  0  0
    5.7142    0.1443    1.3234 H   0  0  0  0  0  0  0  0  0  0  0  0
    4.4906   -1.1033    1.3449 H   0  0  0  0  0  0  0  0  0  0  0  0
    4.5772   -1.3225    3.6749 H   0  0  0  0  0  0  0  0  0  0  0  0
    6.2068   -0.7383    3.4360 H   0  0  0  0  0  0  0  0  0  0  0  0
    4.7709    0.6186    4.9505 H   0  0  0  0  0  0  0  0  0  0  0  0
    3.2273    2.0873    3.6523 H   0  0  0  0  0  0  0  0  0  0  0  0
    2.7443    0.4144    3.8014 H   0  0  0  0  0  0  0  0  0  0  0  0
  1 21  1  0  0  0  0
  1 29  1  0  0  0  0
  1 30  1  0  0  0  0
  1 31  1  0  0  0  0
  2 21  1  0  0  0  0
  2  3  1  0  0  0  0
  2 32  1  0  0  0  0
  2 33  1  0  0  0  0
  3 27  1  0  0  0  0
  3  4  2  0  0  0  0
  4 22  1  0  0  0  0
  4 34  1  0  0  0  0
  5 23  1  0  0  0  0
  5 16  1  0  0  0  0
  5 22  2  0  0  0  0
  6 23  1  0  0  0  0
  6  7  1  0  0  0  0
  6 35  1  0  0  0  0
  6 36  1  0  0  0  0
  7 24  1  0  0  0  0
  7 37  1  0  0  0  0
  7 38  1  0  0  0  0
  8 24  1  0  0  0  0
  8 13  1  0  0  0  0
  8  9  2  0  0  0  0
  9 10  1  0  0  0  0
  9 39  1  0  0  0  0
 10 40  1  0  0  0  0
 10 11  2  0  0  0  0
 11 12  1  0  0  0  0
 11 26  1  0  0  0  0
 12 25  3  0  0  0  0
 13 41  1  0  0  0  0
 13 26  2  0  0  0  0
 14 24  1  0  0  0  0
 14 15  1  0  0  0  0
 14 42  1  0  0  0  0
 14 43  1  0  0  0  0
 15 23  1  0  0  0  0
 15 44  1  0  0  0  0
 15 45  1  0  0  0  0
 16 46  1  0  0  0  0
 16 27  2  0  0  0  0
 17 21  1  0  0  0  0
 17 18  1  0  0  0  0
 17 20  1  0  0  0  0
 17 47  1  6  0  0  0
 18 19  1  0  0  0  0
 18 48  1  0  0  0  0
 18 49  1  0  0  0  0
 19 28  1  0  0  0  0
 19 50  1  0  0  0  0
 19 51  1  0  0  0  0
 20 28  1  0  0  0  0
 20 53  1  0  0  0  0
 20 54  1  0  0  0  0
 28 52  1  0  0  0  0
M  END
>  <score>
0.44019275903701782

$$$$
PV-003001396845
 OpenBabel08202115463D

 50 53  0  0  0  0  0  0  0  0999 V2000
    6.7392    0.6406    3.4930 C   0  0  0  0  0  0  0  0  0  0  0  0
    5.5957    1.1683    2.6782 C   0  0  1  0  0  0  0  0  0  0  0  0
    5.4665    2.5621    2.1391 C   0  0  0  0  0  0  0  0  0  0  0  0
    4.1716    2.6500    1.3872 C   0  0  0  0  0  0  0  0  0  0  0  0
    3.5005    1.3106    1.4616 C   0  0  2  0  0  0  0  0  0  0  0  0
    2.1809    0.9502    0.8462 C   0  0  0  0  0  0  0  0  0  0  0  0
    0.0895    1.6166   -0.5438 C   0  0  2  0  0  0  0  0  0  0  0  0
   -0.7523    0.3763   -0.5978 C   0  0  0  0  0  0  0  0  0  0  0  0
   -1.7767    1.1070   -1.4142 C   0  0  2  0  0  0  0  0  0  0  0  0
   -3.0963    0.7466   -2.0296 C   0  0  0  0  0  0  0  0  0  0  0  0
   -4.9638   -1.0010   -2.4858 C   0  0  0  0  0  0  0  0  0  0  0  0
   -5.5118   -2.3882   -2.3266 C   0  0  0  0  0  0  0  0  0  0  0  0
   -6.8106   -2.8923   -2.8823 C   0  0  0  0  0  0  0  0  0  0  0  0
   -6.9586   -4.3306   -2.4829 C   0  0  0  0  0  0  0  0  0  0  0  0
   -8.1116   -5.2268   -2.8258 C   0  0  0  0  0  0  0  0  0  0  0  0
   -5.7512   -4.7155   -1.6804 C   0  0  0  0  0  0  0  0  0  0  0  0
   -0.9349    2.3474   -1.3603 C   0  0  0  0  0  0  0  0  0  0  0  0
    3.6296   -0.0832    2.0007 C   0  0  0  0  0  0  0  0  0  0  0  0
    4.3807    0.3948    2.2595 C   0  0  0  0  0  0  0  0  0  0  0  0
    1.6329   -0.4370    1.0054 O   0  0  0  0  0  0  0  0  0  0  0  0
   -5.7355    0.0259   -3.2605 O   0  0  0  0  0  0  0  0  0  0  0  0
    4.9246   -0.1712    2.7527 O   0  0  0  0  0  0  0  0  0  0  0  0
    1.4091    1.9771    0.0715 N   0  0  0  0  0  0  0  0  0  0  0  0
   -3.6442   -0.6406   -1.8704 N   0  0  0  0  0  0  0  0  0  0  0  0
   -9.2646   -6.1229   -3.1688 N   0  0  0  0  0  0  0  0  0  0  0  0
   -4.8569   -3.5150   -1.5837 N   0  0  0  0  0  0  0  0  0  0  0  0
    7.6293    0.5699    2.8678 H   0  0  0  0  0  0  0  0  0  0  0  0
    6.4859   -0.3475    3.8770 H   0  0  0  0  0  0  0  0  0  0  0  0
    6.9335    1.3160    4.3262 H   0  0  0  0  0  0  0  0  0  0  0  0
    6.2986    2.7780    1.4689 H   0  0  0  0  0  0  0  0  0  0  0  0
    5.4662    3.2780    2.9610 H   0  0  0  0  0  0  0  0  0  0  0  0
    4.3652    2.9092    0.3463 H   0  0  0  0  0  0  0  0  0  0  0  0
    3.5328    3.4092    1.8384 H   0  0  0  0  0  0  0  0  0  0  0  0
    1.7999    2.9667   -0.0420 H   0  0  0  0  0  0  0  0  0  0  0  0
   -0.4201    1.9228    0.3697 H   0  0  0  0  0  0  0  0  0  0  0  0
   -1.1143    0.0417    0.3744 H   0  0  0  0  0  0  0  0  0  0  0  0
   -0.2819   -0.4583   -1.1178 H   0  0  0  0  0  0  0  0  0  0  0  0
   -2.2864    1.4131   -0.5006 H   0  0  0  0  0  0  0  0  0  0  0  0
   -3.0037    0.9272   -3.1005 H   0  0  0  0  0  0  0  0  0  0  0  0
   -3.8362    1.4273   -1.6084 H   0  0  0  0  0  0  0  0  0  0  0  0
   -3.0937   -1.3731   -1.3178 H   0  0  0  0  0  0  0  0  0  0  0  0
   -7.5220   -2.3149   -3.4727 H   0  0  0  0  0  0  0  0  0  0  0  0
   -5.5576   -5.6954   -1.2440 H   0  0  0  0  0  0  0  0  0  0  0  0
   -3.9170   -3.4702   -1.0744 H   0  0  0  0  0  0  0  0  0  0  0  0
   -0.5729    2.6820   -2.3324 H   0  0  0  0  0  0  0  0  0  0  0  0
   -1.4053    3.1820   -0.8403 H   0  0  0  0  0  0  0  0  0  0  0  0
    3.6300   -0.7991    1.1788 H   0  0  0  0  0  0  0  0  0  0  0  0
    2.7975   -0.2990    2.6709 H   0  0  0  0  0  0  0  0  0  0  0  0
    3.8450    0.0422    3.1409 H   0  0  0  0  0  0  0  0  0  0  0  0
    4.6774   -0.4578    1.6488 H   0  0  0  0  0  0  0  0  0  0  0  0
  1 27  1  0  0  0  0
  1 28  1  0  0  0  0
  1 29  1  0  0  0  0
  2  1  1  6  0  0  0
  2  3  1  0  0  0  0
  2 22  1  0  0  0  0
  2 19  1  0  0  0  0
  3  4  1  0  0  0  0
  3 30  1  0  0  0  0
  3 31  1  0  0  0  0
  4  5  1  0  0  0  0
  4 32  1  0  0  0  0
  4 33  1  0  0  0  0
  5  6  1  6  0  0  0
  5 18  1  0  0  0  0
  5 19  1  0  0  0  0
  6 23  1  0  0  0  0
  6 20  2  0  0  0  0
  7 23  1  0  0  0  0
  7  8  1  0  0  0  0
  7 17  1  0  0  0  0
  7 35  1  1  0  0  0
  8  9  1  0  0  0  0
  8 36  1  0  0  0  0
  8 37  1  0  0  0  0
  9 10  1  0  0  0  0
  9 17  1  0  0  0  0
  9 38  1  1  0  0  0
 10 24  1  0  0  0  0
 10 39  1  0  0  0  0
 10 40  1  0  0  0  0
 11 24  1  0  0  0  0
 11 12  1  0  0  0  0
 11 21  2  0  0  0  0
 12 26  1  0  0  0  0
 12 13  2  0  0  0  0
 13 14  1  0  0  0  0
 13 42  1  0  0  0  0
 14 15  1  0  0  0  0
 14 16  2  0  0  0  0
 15 25  3  0  0  0  0
 16 26  1  0  0  0  0
 16 43  1  0  0  0  0
 17 45  1  0  0  0  0
 17 46  1  0  0  0  0
 18 22  1  0  0  0  0
 18 47  1  0  0  0  0
 18 48  1  0  0  0  0
 19 49  1  0  0  0  0
 19 50  1  0  0  0  0
 23 34  1  0  0  0  0
 24 41  1  0  0  0  0
 26 44  1  0  0  0  0
M  END
>  <score>
0.44019985198974609

$$$$
PV-003195111186
 OpenBabel08202115463D

 39 41  0  0  0  0  0  0  0  0999 V2000
    0.4478    2.2084    0.7782 O   0  0  0  0  0  0  0  0  0  0  0  0
   -4.5924   -0.5170   -2.1605 O   0  0  0  0  0  0  0  0  0  0  0  0
    1.1005    1.2006    0.4762 C   0  0  0  0  0  0  0  0  0  0  0  0
    3.2265    2.1006    1.3648 C   0  0  0  0  0  0  0  0  0  0  0  0
    4.6894    1.6731    1.4990 C   0  0  1  0  0  0  0  0  0  0  0  0
    5.4778    1.9984    2.7325 C   0  0  0  0  0  0  0  0  0  0  0  0
    5.0111    0.5976    2.4889 C   0  0  1  0  0  0  0  0  0  0  0  0
    3.8846    0.0369    3.3096 C   0  0  0  0  0  0  0  0  0  0  0  0
   -0.7798   -0.0288   -0.6931 C   0  0  0  0  0  0  0  0  0  0  0  0
   -1.7846    0.8647   -0.3731 C   0  0  0  0  0  0  0  0  0  0  0  0
   -3.0613    0.6830   -0.8815 C   0  0  0  0  0  0  0  0  0  0  0  0
   -3.3308   -0.3945   -1.7041 C   0  0  0  0  0  0  0  0  0  0  0  0
   -4.8478   -1.7084   -2.9447 C   0  0  1  0  0  0  0  0  0  0  0  0
   -5.2879   -2.8918   -2.1356 C   0  0  0  0  0  0  0  0  0  0  0  0
   -6.2734   -2.1607   -2.9924 C   0  0  0  0  0  0  0  0  0  0  0  0
   -2.3229   -1.2905   -2.0249 C   0  0  0  0  0  0  0  0  0  0  0  0
   -1.0500   -1.1095   -1.5180 C   0  0  0  0  0  0  0  0  0  0  0  0
    2.3953    1.0663    0.7672 N   0  0  0  0  0  0  0  0  0  0  0  0
    0.5243    0.1596   -0.1787 N   0  0  0  0  0  0  0  0  0  0  0  0
    3.1230    1.0827    3.8282 F   0  0  0  0  0  0  0  0  0  0  0  0
   -6.5767   -2.8211   -4.1374 F   0  0  0  0  0  0  0  0  0  0  0  0
   -7.2780   -1.4457   -2.5035 F   0  0  0  0  0  0  0  0  0  0  0  0
    2.8187    0.2064    0.5632 H   0  0  0  0  0  0  0  0  0  0  0  0
    2.8448    2.3272    2.3384 H   0  0  0  0  0  0  0  0  0  0  0  0
    3.1800    2.9754    0.7504 H   0  0  0  0  0  0  0  0  0  0  0  0
    5.2439    1.6474    0.5843 H   0  0  0  0  0  0  0  0  0  0  0  0
    5.0347    2.5819    3.5123 H   0  0  0  0  0  0  0  0  0  0  0  0
    6.5180    2.2367    2.6551 H   0  0  0  0  0  0  0  0  0  0  0  0
    5.7621   -0.1053    2.1942 H   0  0  0  0  0  0  0  0  0  0  0  0
    4.2845   -0.5456    4.1132 H   0  0  0  0  0  0  0  0  0  0  0  0
    3.2674   -0.5819    2.6925 H   0  0  0  0  0  0  0  0  0  0  0  0
    1.1234   -0.6027   -0.3213 H   0  0  0  0  0  0  0  0  0  0  0  0
   -1.5828    1.6733    0.2491 H   0  0  0  0  0  0  0  0  0  0  0  0
   -3.8164    1.3575   -0.6441 H   0  0  0  0  0  0  0  0  0  0  0  0
   -4.2392   -1.8956   -3.8046 H   0  0  0  0  0  0  0  0  0  0  0  0
   -5.3478   -2.8188   -1.0698 H   0  0  0  0  0  0  0  0  0  0  0  0
   -4.9677   -3.8756   -2.4088 H   0  0  0  0  0  0  0  0  0  0  0  0
   -2.5247   -2.0991   -2.6470 H   0  0  0  0  0  0  0  0  0  0  0  0
   -0.2949   -1.7840   -1.7555 H   0  0  0  0  0  0  0  0  0  0  0  0
  3 18  1  0  0  0  0
  3 19  1  0  0  0  0
  3  1  2  0  0  0  0
  4 18  1  0  0  0  0
  4  5  1  0  0  0  0
  4 24  1  0  0  0  0
  4 25  1  0  0  0  0
  5  6  1  0  0  0  0
  5  7  1  0  0  0  0
  5 26  1  6  0  0  0
  6  7  1  0  0  0  0
  6 27  1  0  0  0  0
  6 28  1  0  0  0  0
  7  8  1  0  0  0  0
  7 29  1  6  0  0  0
  8 20  1  0  0  0  0
  8 30  1  0  0  0  0
  8 31  1  0  0  0  0
  9 19  1  0  0  0  0
  9 17  1  0  0  0  0
  9 10  2  0  0  0  0
 10 11  1  0  0  0  0
 10 33  1  0  0  0  0
 11 34  1  0  0  0  0
 11 12  2  0  0  0  0
 12  2  1  0  0  0  0
 12 16  1  0  0  0  0
 13  2  1  0  0  0  0
 13 14  1  0  0  0  0
 13 15  1  0  0  0  0
 13 35  1  6  0  0  0
 14 15  1  0  0  0  0
 14 36  1  0  0  0  0
 14 37  1  0  0  0  0
 15 21  1  0  0  0  0
 15 22  1  0  0  0  0
 16 38  1  0  0  0  0
 16 17  2  0  0  0  0
 17 39  1  0  0  0  0
 18 23  1  0  0  0  0
 19 32  1  0  0  0  0
M  END
>  <score>
0.44023710489273071

$$$$
PV-004007128728
 OpenBabel08202115463D

 53 56  0  0  0  0  0  0  0  0999 V2000
   -4.7180   -4.1130   -4.3313 C   0  0  0  0  0  0  0  0  0  0  0  0
   -5.5752   -3.0041   -3.7943 C   0  0  0  0  0  0  0  0  0  0  0  0
   -5.2579   -2.0439   -2.8284 C   0  0  0  0  0  0  0  0  0  0  0  0
   -4.0090   -1.8162   -2.0384 C   0  0  0  0  0  0  0  0  0  0  0  0
   -2.9827   -0.5325   -0.1854 C   0  0  0  0  0  0  0  0  0  0  0  0
   -2.0821    0.5868   -0.6552 C   0  0  2  0  0  0  0  0  0  0  0  0
   -1.0990    0.1918   -1.7863 C   0  0  0  0  0  0  0  0  0  0  0  0
    0.0261    0.9297   -1.0247 C   0  0  2  0  0  0  0  0  0  0  0  0
    1.3306    0.1705   -0.9434 C   0  0  0  0  0  0  0  0  0  0  0  0
    2.3375    0.6529    1.2355 C   0  0  0  0  0  0  0  0  0  0  0  0
    3.2791    1.5537    1.9998 C   0  0  1  0  0  0  0  0  0  0  0  0
    2.9946    1.4896    3.5168 C   0  0  0  0  0  0  0  0  0  0  0  0
    4.3206    0.9540    4.0889 C   0  0  2  0  0  0  0  0  0  0  0  0
    5.3643    2.0663    3.9647 C   0  0  0  0  0  0  0  0  0  0  0  0
    5.6504    2.1247    2.4497 C   0  0  0  0  0  0  0  0  0  0  0  0
    4.7227    1.0586    1.8854 C   0  0  1  0  0  0  0  0  0  0  0  0
    4.7741   -0.0414    2.9874 C   0  0  0  0  0  0  0  0  0  0  0  0
   -0.8462    0.8418    0.2461 C   0  0  0  0  0  0  0  0  0  0  0  0
   -6.8210   -2.8047   -4.2139 N   0  0  0  0  0  0  0  0  0  0  0  0
   -7.2226   -1.7398   -3.5081 N   0  0  0  0  0  0  0  0  0  0  0  0
   -6.3192   -1.2486   -2.6613 N   0  0  0  0  0  0  0  0  0  0  0  0
   -4.0456   -0.8325   -1.1381 N   0  0  0  0  0  0  0  0  0  0  0  0
    2.3101    0.8313   -0.0883 N   0  0  0  0  0  0  0  0  0  0  0  0
   -3.0189   -2.5048   -2.2226 O   0  0  0  0  0  0  0  0  0  0  0  0
   -2.8676    1.7477   -0.9291 O   0  0  0  0  0  0  0  0  0  0  0  0
    1.6473   -0.1861    1.8128 O   0  0  0  0  0  0  0  0  0  0  0  0
   -5.2887   -4.7069   -5.0143 H   0  0  0  0  0  0  0  0  0  0  0  0
   -4.3801   -4.7261   -3.5221 H   0  0  0  0  0  0  0  0  0  0  0  0
   -3.8740   -3.6965   -4.8404 H   0  0  0  0  0  0  0  0  0  0  0  0
   -8.1163   -1.3502   -3.6074 H   0  0  0  0  0  0  0  0  0  0  0  0
   -4.8471   -0.2690   -1.1151 H   0  0  0  0  0  0  0  0  0  0  0  0
   -2.3907   -1.4125   -0.0439 H   0  0  0  0  0  0  0  0  0  0  0  0
   -3.4270   -0.2474    0.7453 H   0  0  0  0  0  0  0  0  0  0  0  0
   -2.3826    2.3314   -1.5170 H   0  0  0  0  0  0  0  0  0  0  0  0
   -0.9447   -0.8621   -1.8882 H   0  0  0  0  0  0  0  0  0  0  0  0
   -1.3342    0.6124   -2.7416 H   0  0  0  0  0  0  0  0  0  0  0  0
    0.2135    1.9263   -1.3663 H   0  0  0  0  0  0  0  0  0  0  0  0
    1.7387    0.0837   -1.9287 H   0  0  0  0  0  0  0  0  0  0  0  0
    1.1353   -0.8054   -0.5505 H   0  0  0  0  0  0  0  0  0  0  0  0
    2.9712    1.4268   -0.4990 H   0  0  0  0  0  0  0  0  0  0  0  0
    3.1888    2.5559    1.6360 H   0  0  0  0  0  0  0  0  0  0  0  0
    2.7698    2.4598    3.9082 H   0  0  0  0  0  0  0  0  0  0  0  0
    2.1855    0.8224    3.7294 H   0  0  0  0  0  0  0  0  0  0  0  0
    4.2408    0.5236    5.0653 H   0  0  0  0  0  0  0  0  0  0  0  0
    4.9734    2.9983    4.3161 H   0  0  0  0  0  0  0  0  0  0  0  0
    6.2507    1.8217    4.5119 H   0  0  0  0  0  0  0  0  0  0  0  0
    6.6741    1.8925    2.2425 H   0  0  0  0  0  0  0  0  0  0  0  0
    5.4151    3.0893    2.0509 H   0  0  0  0  0  0  0  0  0  0  0  0
    4.9921    0.7078    0.9111 H   0  0  0  0  0  0  0  0  0  0  0  0
    5.7537   -0.4406    3.1483 H   0  0  0  0  0  0  0  0  0  0  0  0
    4.0842   -0.8429    2.8245 H   0  0  0  0  0  0  0  0  0  0  0  0
   -0.8931    1.7487    0.8121 H   0  0  0  0  0  0  0  0  0  0  0  0
   -0.5986    0.0280    0.8952 H   0  0  0  0  0  0  0  0  0  0  0  0
  1  2  1  0  0  0  0
  1 27  1  0  0  0  0
  1 28  1  0  0  0  0
  1 29  1  0  0  0  0
  2  3  1  0  0  0  0
  2 19  2  0  0  0  0
  3  4  1  0  0  0  0
  3 21  2  0  0  0  0
  4 22  1  0  0  0  0
  4 24  2  0  0  0  0
  5 22  1  0  0  0  0
  5  6  1  0  0  0  0
  5 32  1  0  0  0  0
  5 33  1  0  0  0  0
  6 25  1  6  0  0  0
  6  7  1  0  0  0  0
  6 18  1  0  0  0  0
  7  8  1  0  0  0  0
  7 35  1  0  0  0  0
  7 36  1  0  0  0  0
  8  9  1  0  0  0  0
  8 18  1  0  0  0  0
  8 37  1  6  0  0  0
  9 23  1  0  0  0  0
  9 38  1  0  0  0  0
  9 39  1  0  0  0  0
 10 23  1  0  0  0  0
 10 11  1  0  0  0  0
 10 26  2  0  0  0  0
 11 12  1  0  0  0  0
 11 16  1  0  0  0  0
 11 41  1  6  0  0  0
 12 13  1  0  0  0  0
 12 42  1  0  0  0  0
 12 43  1  0  0  0  0
 13 14  1  0  0  0  0
 13 17  1  0  0  0  0
 13 44  1  1  0  0  0
 14 15  1  0  0  0  0
 14 45  1  0  0  0  0
 14 46  1  0  0  0  0
 15 16  1  0  0  0  0
 15 47  1  0  0  0  0
 15 48  1  0  0  0  0
 16 17  1  0  0  0  0
 16 49  1  6  0  0  0
 17 50  1  0  0  0  0
 17 51  1  0  0  0  0
 18 52  1  0  0  0  0
 18 53  1  0  0  0  0
 19 20  1  0  0  0  0
 20 21  1  0  0  0  0
 20 30  1  0  0  0  0
 22 31  1  0  0  0  0
 23 40  1  0  0  0  0
 25 34  1  0  0  0  0
M  END
>  <score>
0.44027900695800781

$$$$
PV-003413958756
 OpenBabel08202115463D

 52 55  0  0  0  0  0  0  0  0999 V2000
   -7.3839   -2.7427   -4.2147 C   0  0  0  0  0  0  0  0  0  0  0  0
   -6.2300   -2.3436   -3.3256 C   0  0  0  0  0  0  0  0  0  0  0  0
   -5.5231   -1.1577   -3.4101 C   0  0  0  0  0  0  0  0  0  0  0  0
   -3.5999   -0.2326   -2.0883 C   0  0  0  0  0  0  0  0  0  0  0  0
   -2.7538   -0.4603   -1.0639 C   0  0  0  0  0  0  0  0  0  0  0  0
   -1.7906    0.5759   -0.7736 C   0  0  0  0  0  0  0  0  0  0  0  0
   -0.0112    1.3068    0.7130 C   0  0  0  0  0  0  0  0  0  0  0  0
    1.3775    1.4650    0.1238 C   0  0  0  0  0  0  0  0  0  0  0  0
    3.2937    0.0302    0.7389 C   0  0  0  0  0  0  0  0  0  0  0  0
    3.8834    1.2639    1.3774 C   0  0  0  0  0  0  0  0  0  0  0  0
    4.5671    0.0887    3.3461 C   0  0  0  0  0  0  0  0  0  0  0  0
    5.6786    2.1597    2.7830 C   0  0  0  0  0  0  0  0  0  0  0  0
    4.9345    3.3652    3.2658 C   0  0  0  0  0  0  0  0  0  0  0  0
    5.7607    3.4424    2.0167 C   0  0  0  0  0  0  0  0  0  0  0  0
    1.3690   -0.8905   -0.5130 C   0  0  0  0  0  0  0  0  0  0  0  0
   -0.0196   -1.0487    0.0762 C   0  0  0  0  0  0  0  0  0  0  0  0
   -2.8242   -1.6632   -0.3230 C   0  0  0  0  0  0  0  0  0  0  0  0
   -3.7521   -2.6076   -0.6501 C   0  0  0  0  0  0  0  0  0  0  0  0
   -4.6473   -2.3831   -1.7088 C   0  0  0  0  0  0  0  0  0  0  0  0
   -5.7047   -3.1133   -2.2850 C   0  0  0  0  0  0  0  0  0  0  0  0
   -4.5535   -1.1820   -2.4129 N   0  0  0  0  0  0  0  0  0  0  0  0
   -0.7392    0.2254    0.0426 N   0  0  0  0  0  0  0  0  0  0  0  0
    2.0971    0.1910    0.1574 N   0  0  0  0  0  0  0  0  0  0  0  0
    5.0340    0.9435    2.2457 N   0  0  0  0  0  0  0  0  0  0  0  0
   -1.9205    1.7022   -1.2395 O   0  0  0  0  0  0  0  0  0  0  0  0
    3.8876   -1.0446    0.7608 O   0  0  0  0  0  0  0  0  0  0  0  0
   -7.0402   -3.4305   -4.9588 H   0  0  0  0  0  0  0  0  0  0  0  0
   -7.7841   -1.8724   -4.6914 H   0  0  0  0  0  0  0  0  0  0  0  0
   -8.1449   -3.2080   -3.6237 H   0  0  0  0  0  0  0  0  0  0  0  0
   -5.6863   -0.3902   -4.0927 H   0  0  0  0  0  0  0  0  0  0  0  0
   -3.5365    0.6518   -2.6319 H   0  0  0  0  0  0  0  0  0  0  0  0
   -0.5511    2.2224    0.5899 H   0  0  0  0  0  0  0  0  0  0  0  0
    0.0736    1.0795    1.7552 H   0  0  0  0  0  0  0  0  0  0  0  0
    1.2939    1.7953   -0.8905 H   0  0  0  0  0  0  0  0  0  0  0  0
    1.9204    2.1909    0.6922 H   0  0  0  0  0  0  0  0  0  0  0  0
    3.1288    1.7415    1.9668 H   0  0  0  0  0  0  0  0  0  0  0  0
    4.2085    1.9299    0.6056 H   0  0  0  0  0  0  0  0  0  0  0  0
    3.8878    0.6394    3.9626 H   0  0  0  0  0  0  0  0  0  0  0  0
    5.4047   -0.2269    3.9323 H   0  0  0  0  0  0  0  0  0  0  0  0
    4.0688   -0.7688    2.9445 H   0  0  0  0  0  0  0  0  0  0  0  0
    6.5604    1.9556    3.3537 H   0  0  0  0  0  0  0  0  0  0  0  0
    5.2551    3.8726    4.1516 H   0  0  0  0  0  0  0  0  0  0  0  0
    3.8667    3.3951    3.2037 H   0  0  0  0  0  0  0  0  0  0  0  0
    5.2824    3.5275    1.0634 H   0  0  0  0  0  0  0  0  0  0  0  0
    6.6709    4.0050    2.0112 H   0  0  0  0  0  0  0  0  0  0  0  0
    1.2843   -0.6632   -1.5552 H   0  0  0  0  0  0  0  0  0  0  0  0
    1.9089   -1.8060   -0.3899 H   0  0  0  0  0  0  0  0  0  0  0  0
    0.0640   -1.3790    1.0905 H   0  0  0  0  0  0  0  0  0  0  0  0
   -0.5626   -1.7746   -0.4922 H   0  0  0  0  0  0  0  0  0  0  0  0
   -2.1703   -1.8269    0.4690 H   0  0  0  0  0  0  0  0  0  0  0  0
   -3.7970   -3.4974   -0.1136 H   0  0  0  0  0  0  0  0  0  0  0  0
   -6.0345   -4.0544   -1.9896 H   0  0  0  0  0  0  0  0  0  0  0  0
  1  2  1  0  0  0  0
  1 27  1  0  0  0  0
  1 28  1  0  0  0  0
  1 29  1  0  0  0  0
  2 20  1  0  0  0  0
  2  3  2  0  0  0  0
  3 21  1  0  0  0  0
  3 30  1  0  0  0  0
  4 21  1  0  0  0  0
  4 31  1  0  0  0  0
  4  5  2  0  0  0  0
  5  6  1  0  0  0  0
  5 17  1  0  0  0  0
  6 22  1  0  0  0  0
  6 25  2  0  0  0  0
  7 22  1  0  0  0  0
  7  8  1  0  0  0  0
  7 32  1  0  0  0  0
  7 33  1  0  0  0  0
  8 23  1  0  0  0  0
  8 34  1  0  0  0  0
  8 35  1  0  0  0  0
  9 23  1  0  0  0  0
  9 10  1  0  0  0  0
  9 26  2  0  0  0  0
 10 24  1  0  0  0  0
 10 36  1  0  0  0  0
 10 37  1  0  0  0  0
 11 24  1  0  0  0  0
 11 38  1  0  0  0  0
 11 39  1  0  0  0  0
 11 40  1  0  0  0  0
 12 24  1  0  0  0  0
 12 13  1  0  0  0  0
 12 14  1  0  0  0  0
 12 41  1  0  0  0  0
 13 14  1  0  0  0  0
 13 42  1  0  0  0  0
 13 43  1  0  0  0  0
 14 44  1  0  0  0  0
 14 45  1  0  0  0  0
 15 23  1  0  0  0  0
 15 16  1  0  0  0  0
 15 46  1  0  0  0  0
 15 47  1  0  0  0  0
 16 22  1  0  0  0  0
 16 48  1  0  0  0  0
 16 49  1  0  0  0  0
 17 50  1  0  0  0  0
 17 18  2  0  0  0  0
 18 19  1  0  0  0  0
 18 51  1  0  0  0  0
 19 21  1  0  0  0  0
 19 20  2  0  0  0  0
 20 52  1  0  0  0  0
M  END
>  <score>
0.4403722882270813

$$$$
PV-004072133313
 OpenBabel08202115463D

 54 56  0  0  0  0  0  0  0  0999 V2000
    6.5762    1.0156    1.7349 C   0  0  0  0  0  0  0  0  0  0  0  0
    5.4535    1.5445    2.6079 C   0  0  0  0  0  0  0  0  0  0  0  0
    4.1322    0.8798    2.2014 C   0  0  0  0  0  0  0  0  0  0  0  0
    2.1661    0.9385    0.7776 C   0  0  1  0  0  0  0  0  0  0  0  0
    1.1373    1.9640    1.2462 C   0  0  0  0  0  0  0  0  0  0  0  0
   -0.0780    1.6523    0.3520 C   0  0  2  0  0  0  0  0  0  0  0  0
   -0.9937    0.6611    1.0359 C   0  0  0  0  0  0  0  0  0  0  0  0
   -2.3090   -0.5714   -0.6769 C   0  0  0  0  0  0  0  0  0  0  0  0
   -3.5330   -0.5909   -1.5529 C   0  0  0  0  0  0  0  0  0  0  0  0
   -4.1066   -1.9856   -1.7435 C   0  0  0  0  0  0  0  0  0  0  0  0
   -5.3549   -1.9409   -2.6082 C   0  0  0  0  0  0  0  0  0  0  0  0
   -7.2607   -3.5784   -2.3084 C   0  0  0  0  0  0  0  0  0  0  0  0
   -7.5345   -4.7936   -2.8598 C   0  0  0  0  0  0  0  0  0  0  0  0
   -5.5701   -4.2682   -3.5079 C   0  0  0  0  0  0  0  0  0  0  0  0
    0.4874    1.0546   -0.9268 C   0  0  0  0  0  0  0  0  0  0  0  0
    1.9990    0.8537   -0.7294 C   0  0  1  0  0  0  0  0  0  0  0  0
    5.7459    1.5488    4.1178 C   0  0  0  0  0  0  0  0  0  0  0  0
    5.3997    3.0746    2.7475 C   0  0  0  0  0  0  0  0  0  0  0  0
    3.6522   -0.0095    2.9029 O   0  0  0  0  0  0  0  0  0  0  0  0
   -1.4461   -1.4424   -0.7789 O   0  0  0  0  0  0  0  0  0  0  0  0
    2.7421    1.8819   -1.3857 O   0  0  0  0  0  0  0  0  0  0  0  0
    5.7324    2.9956    4.1600 O   0  0  0  0  0  0  0  0  0  0  0  0
    3.5117    1.3777    1.1158 N   0  0  0  0  0  0  0  0  0  0  0  0
   -2.1876    0.4282    0.2211 N   0  0  0  0  0  0  0  0  0  0  0  0
   -5.9986   -3.2498   -2.7331 N   0  0  0  0  0  0  0  0  0  0  0  0
   -6.4701   -5.2285   -3.6116 N   0  0  0  0  0  0  0  0  0  0  0  0
    6.5363   -0.0534    1.7104 H   0  0  0  0  0  0  0  0  0  0  0  0
    7.5175    1.3279    2.1366 H   0  0  0  0  0  0  0  0  0  0  0  0
    6.4666    1.3992    0.7420 H   0  0  0  0  0  0  0  0  0  0  0  0
    3.9669    2.0373    0.5518 H   0  0  0  0  0  0  0  0  0  0  0  0
    1.9770   -0.0132    1.2286 H   0  0  0  0  0  0  0  0  0  0  0  0
    0.9004    1.8286    2.2808 H   0  0  0  0  0  0  0  0  0  0  0  0
    1.4874    2.9626    1.0877 H   0  0  0  0  0  0  0  0  0  0  0  0
   -0.6203    2.5490    0.1354 H   0  0  0  0  0  0  0  0  0  0  0  0
   -1.2868    1.0502    1.9885 H   0  0  0  0  0  0  0  0  0  0  0  0
   -0.4736   -0.2640    1.1726 H   0  0  0  0  0  0  0  0  0  0  0  0
   -2.9469    1.0371    0.3353 H   0  0  0  0  0  0  0  0  0  0  0  0
   -3.2715   -0.1961   -2.5124 H   0  0  0  0  0  0  0  0  0  0  0  0
   -4.2826    0.0272   -1.1045 H   0  0  0  0  0  0  0  0  0  0  0  0
   -4.3565   -2.3959   -0.7874 H   0  0  0  0  0  0  0  0  0  0  0  0
   -3.3736   -2.6046   -2.2173 H   0  0  0  0  0  0  0  0  0  0  0  0
   -5.0836   -1.5976   -3.5846 H   0  0  0  0  0  0  0  0  0  0  0  0
   -6.0513   -1.2569   -2.1698 H   0  0  0  0  0  0  0  0  0  0  0  0
   -7.8811   -3.0155   -1.6920 H   0  0  0  0  0  0  0  0  0  0  0  0
   -8.4233   -5.3178   -2.7300 H   0  0  0  0  0  0  0  0  0  0  0  0
   -4.6386   -4.2937   -3.9698 H   0  0  0  0  0  0  0  0  0  0  0  0
    0.3137    1.7201   -1.7464 H   0  0  0  0  0  0  0  0  0  0  0  0
    0.0191    0.1133   -1.1255 H   0  0  0  0  0  0  0  0  0  0  0  0
    2.3101   -0.1019   -1.0967 H   0  0  0  0  0  0  0  0  0  0  0  0
    3.0696    1.5537   -2.2264 H   0  0  0  0  0  0  0  0  0  0  0  0
    6.6921    1.1198    4.3739 H   0  0  0  0  0  0  0  0  0  0  0  0
    4.9766    1.0941    4.7062 H   0  0  0  0  0  0  0  0  0  0  0  0
    6.1327    3.5870    2.1602 H   0  0  0  0  0  0  0  0  0  0  0  0
    4.4330    3.4911    2.5552 H   0  0  0  0  0  0  0  0  0  0  0  0
  1  2  1  0  0  0  0
  1 27  1  0  0  0  0
  1 28  1  0  0  0  0
  1 29  1  0  0  0  0
  2  3  1  0  0  0  0
  2 17  1  0  0  0  0
  2 18  1  0  0  0  0
  3 23  1  0  0  0  0
  3 19  2  0  0  0  0
  4 23  1  0  0  0  0
  4  5  1  0  0  0  0
  4 16  1  0  0  0  0
  4 31  1  1  0  0  0
  5  6  1  0  0  0  0
  5 32  1  0  0  0  0
  5 33  1  0  0  0  0
  6  7  1  0  0  0  0
  6 15  1  0  0  0  0
  6 34  1  6  0  0  0
  7 24  1  0  0  0  0
  7 35  1  0  0  0  0
  7 36  1  0  0  0  0
  8 24  1  0  0  0  0
  8  9  1  0  0  0  0
  8 20  2  0  0  0  0
  9 10  1  0  0  0  0
  9 38  1  0  0  0  0
  9 39  1  0  0  0  0
 10 11  1  0  0  0  0
 10 40  1  0  0  0  0
 10 41  1  0  0  0  0
 11 25  1  0  0  0  0
 11 42  1  0  0  0  0
 11 43  1  0  0  0  0
 12 25  1  0  0  0  0
 12 44  1  0  0  0  0
 12 13  2  0  0  0  0
 13 26  1  0  0  0  0
 13 45  1  0  0  0  0
 14 25  1  0  0  0  0
 14 46  1  0  0  0  0
 14 26  2  0  0  0  0
 15 16  1  0  0  0  0
 15 47  1  0  0  0  0
 15 48  1  0  0  0  0
 16 21  1  0  0  0  0
 16 49  1  6  0  0  0
 17 22  1  0  0  0  0
 17 51  1  0  0  0  0
 17 52  1  0  0  0  0
 18 22  1  0  0  0  0
 18 53  1  0  0  0  0
 18 54  1  0  0  0  0
 21 50  1  0  0  0  0
 23 30  1  0  0  0  0
 24 37  1  0  0  0  0
M  END
>  <score>
0.44050991535186768

$$$$
PV-002893700142
 OpenBabel08202115463D

 55 57  0  0  0  0  0  0  0  0999 V2000
   -1.4937    1.4772   -0.8433 C   0  0  0  0  0  0  0  0  0  0  0  0
   -0.1707    0.2368    0.8695 C   0  0  0  0  0  0  0  0  0  0  0  0
    1.0640   -0.3824    0.2646 C   0  0  0  0  0  0  0  0  0  0  0  0
    3.1440    0.8063    0.7203 C   0  0  0  0  0  0  0  0  0  0  0  0
    4.2235    1.1160    1.7391 C   0  0  1  0  0  0  0  0  0  0  0  0
    5.0526    2.3618    1.3410 C   0  0  0  0  0  0  0  0  0  0  0  0
    6.1417    2.7455    2.3493 C   0  0  0  0  0  0  0  0  0  0  0  0
    5.7395    2.5424    3.8082 C   0  0  0  0  0  0  0  0  0  0  0  0
    4.9030    1.2802    3.9631 C   0  0  1  0  0  0  0  0  0  0  0  0
    3.6426    1.3990    3.1279 C   0  0  0  0  0  0  0  0  0  0  0  0
    5.0975   -0.1438    2.0552 C   0  0  0  0  0  0  0  0  0  0  0  0
   -2.1028   -0.7930   -0.1725 C   0  0  0  0  0  0  0  0  0  0  0  0
   -3.2020   -0.6907   -1.1913 C   0  0  0  0  0  0  0  0  0  0  0  0
   -5.0078   -1.8486   -2.0996 C   0  0  0  0  0  0  0  0  0  0  0  0
   -5.6704   -3.2250   -2.2233 C   0  0  0  0  0  0  0  0  0  0  0  0
   -6.7316   -3.2066   -3.2995 C   0  0  0  0  0  0  0  0  0  0  0  0
   -5.6684   -1.4828   -4.4915 C   0  0  0  0  0  0  0  0  0  0  0  0
   -4.5375   -1.3743   -3.4807 C   0  0  0  0  0  0  0  0  0  0  0  0
   -1.3014    0.2612   -0.0624 N   0  0  0  0  0  0  0  0  0  0  0  0
    2.2620   -0.1515    1.0738 N   0  0  0  0  0  0  0  0  0  0  0  0
    3.0916    1.4012   -0.3553 O   0  0  0  0  0  0  0  0  0  0  0  0
    5.6158    0.1698    3.3759 O   0  0  0  0  0  0  0  0  0  0  0  0
   -2.0217   -1.8322    0.4811 O   0  0  0  0  0  0  0  0  0  0  0  0
   -3.9073   -1.9361   -1.2081 O   0  0  0  0  0  0  0  0  0  0  0  0
   -6.1863   -2.8115   -4.5537 O   0  0  0  0  0  0  0  0  0  0  0  0
   -2.1118    2.1585   -0.2968 H   0  0  0  0  0  0  0  0  0  0  0  0
   -1.9662    1.2334   -1.7718 H   0  0  0  0  0  0  0  0  0  0  0  0
   -0.5442    1.9320   -1.0342 H   0  0  0  0  0  0  0  0  0  0  0  0
   -0.4504   -0.3297    1.7331 H   0  0  0  0  0  0  0  0  0  0  0  0
    0.0564    1.2414    1.1594 H   0  0  0  0  0  0  0  0  0  0  0  0
    1.2192    0.0403   -0.7060 H   0  0  0  0  0  0  0  0  0  0  0  0
    0.9094   -1.4373    0.1742 H   0  0  0  0  0  0  0  0  0  0  0  0
    2.4236   -0.6939    1.8739 H   0  0  0  0  0  0  0  0  0  0  0  0
    4.3835    3.1906    1.2395 H   0  0  0  0  0  0  0  0  0  0  0  0
    5.5222    2.1646    0.4000 H   0  0  0  0  0  0  0  0  0  0  0  0
    6.3819    3.7785    2.2076 H   0  0  0  0  0  0  0  0  0  0  0  0
    7.0070    2.1474    2.1530 H   0  0  0  0  0  0  0  0  0  0  0  0
    5.1676    3.3854    4.1357 H   0  0  0  0  0  0  0  0  0  0  0  0
    6.6218    2.4550    4.4071 H   0  0  0  0  0  0  0  0  0  0  0  0
    4.6648    1.1052    4.9915 H   0  0  0  0  0  0  0  0  0  0  0  0
    2.9094    0.6719    3.4083 H   0  0  0  0  0  0  0  0  0  0  0  0
    3.2158    2.3783    3.1887 H   0  0  0  0  0  0  0  0  0  0  0  0
    4.5038   -1.0339    2.0723 H   0  0  0  0  0  0  0  0  0  0  0  0
    5.8889   -0.2559    1.3439 H   0  0  0  0  0  0  0  0  0  0  0  0
   -2.7846   -0.4969   -2.1573 H   0  0  0  0  0  0  0  0  0  0  0  0
   -3.8705    0.1014   -0.9257 H   0  0  0  0  0  0  0  0  0  0  0  0
   -5.7307   -1.1531   -1.7272 H   0  0  0  0  0  0  0  0  0  0  0  0
   -4.9268   -3.9523   -2.4746 H   0  0  0  0  0  0  0  0  0  0  0  0
   -6.1216   -3.4838   -1.2883 H   0  0  0  0  0  0  0  0  0  0  0  0
   -7.4999   -2.5163   -3.0201 H   0  0  0  0  0  0  0  0  0  0  0  0
   -7.1496   -4.1870   -3.3942 H   0  0  0  0  0  0  0  0  0  0  0  0
   -6.4549   -0.8158   -4.2064 H   0  0  0  0  0  0  0  0  0  0  0  0
   -5.2992   -1.2077   -5.4574 H   0  0  0  0  0  0  0  0  0  0  0  0
   -3.7179   -1.9826   -3.8020 H   0  0  0  0  0  0  0  0  0  0  0  0
   -4.2208   -0.3544   -3.4142 H   0  0  0  0  0  0  0  0  0  0  0  0
  1 19  1  0  0  0  0
  1 26  1  0  0  0  0
  1 27  1  0  0  0  0
  1 28  1  0  0  0  0
  2 19  1  0  0  0  0
  2  3  1  0  0  0  0
  2 29  1  0  0  0  0
  2 30  1  0  0  0  0
  3 20  1  0  0  0  0
  3 31  1  0  0  0  0
  3 32  1  0  0  0  0
  4 20  1  0  0  0  0
  4 21  2  0  0  0  0
  5  4  1  6  0  0  0
  5  6  1  0  0  0  0
  5 10  1  0  0  0  0
  5 11  1  0  0  0  0
  6  7  1  0  0  0  0
  6 34  1  0  0  0  0
  6 35  1  0  0  0  0
  7  8  1  0  0  0  0
  7 36  1  0  0  0  0
  7 37  1  0  0  0  0
  8  9  1  0  0  0  0
  8 38  1  0  0  0  0
  8 39  1  0  0  0  0
  9 10  1  0  0  0  0
  9 22  1  0  0  0  0
  9 40  1  1  0  0  0
 10 41  1  0  0  0  0
 10 42  1  0  0  0  0
 11 22  1  0  0  0  0
 11 43  1  0  0  0  0
 11 44  1  0  0  0  0
 12 19  1  0  0  0  0
 12 13  1  0  0  0  0
 12 23  2  0  0  0  0
 13 24  1  0  0  0  0
 13 45  1  0  0  0  0
 13 46  1  0  0  0  0
 14 24  1  0  0  0  0
 14 15  1  0  0  0  0
 14 18  1  0  0  0  0
 14 47  1  0  0  0  0
 15 16  1  0  0  0  0
 15 48  1  0  0  0  0
 15 49  1  0  0  0  0
 16 25  1  0  0  0  0
 16 50  1  0  0  0  0
 16 51  1  0  0  0  0
 17 25  1  0  0  0  0
 17 18  1  0  0  0  0
 17 52  1  0  0  0  0
 17 53  1  0  0  0  0
 18 54  1  0  0  0  0
 18 55  1  0  0  0  0
 20 33  1  0  0  0  0
M  END
>  <score>
0.4405210018157959

$$$$
Z4610314899
 OpenBabel08202115463D

 50 53  0  0  0  0  0  0  0  0999 V2000
    6.6592    1.1845    2.0888 C   0  0  0  0  0  0  0  0  0  0  0  0
    5.4486    0.9578    2.9549 C   0  0  0  0  0  0  0  0  0  0  0  0
    5.2985    2.0629    3.9708 C   0  0  0  0  0  0  0  0  0  0  0  0
    5.4860   -0.4229    3.5893 C   0  0  0  0  0  0  0  0  0  0  0  0
    3.1405    0.7567    2.4413 C   0  0  0  0  0  0  0  0  0  0  0  0
    0.8184    1.1179    1.8484 C   0  0  1  0  0  0  0  0  0  0  0  0
   -0.0038    2.1939    1.1176 C   0  0  0  0  0  0  0  0  0  0  0  0
   -0.2587    1.1426    0.0319 C   0  0  1  0  0  0  0  0  0  0  0  0
   -0.0275    0.0708    1.1027 C   0  0  0  0  0  0  0  0  0  0  0  0
   -1.2954    1.1620   -1.0857 C   0  0  2  0  0  0  0  0  0  0  0  0
   -2.1429   -0.0620   -1.3528 C   0  0  0  0  0  0  0  0  0  0  0  0
   -4.0346   -0.9577   -2.7395 C   0  0  0  0  0  0  0  0  0  0  0  0
   -4.9350   -0.6297   -3.6995 C   0  0  0  0  0  0  0  0  0  0  0  0
   -5.9062   -1.5741   -4.0963 C   0  0  0  0  0  0  0  0  0  0  0  0
   -6.9469   -3.6079   -4.0188 C   0  0  0  0  0  0  0  0  0  0  0  0
   -5.9086   -2.8951   -3.4487 C   0  0  0  0  0  0  0  0  0  0  0  0
   -4.9418   -3.1672   -2.4573 C   0  0  0  0  0  0  0  0  0  0  0  0
   -4.0375   -2.2122   -2.1251 C   0  0  0  0  0  0  0  0  0  0  0  0
    0.1983    1.1477   -1.4226 C   0  0  0  0  0  0  0  0  0  0  0  0
    4.3799    1.0268    1.9980 O   0  0  0  0  0  0  0  0  0  0  0  0
    2.8740    0.2702    3.5187 O   0  0  0  0  0  0  0  0  0  0  0  0
   -1.9454   -1.1100   -0.7438 O   0  0  0  0  0  0  0  0  0  0  0  0
    2.2338    1.1044    1.5154 N   0  0  0  0  0  0  0  0  0  0  0  0
   -3.1200    0.0328   -2.2784 N   0  0  0  0  0  0  0  0  0  0  0  0
   -6.8949   -1.5773   -4.9717 N   0  0  0  0  0  0  0  0  0  0  0  0
   -7.5362   -2.8205   -4.9289 N   0  0  0  0  0  0  0  0  0  0  0  0
    0.7818    2.2435   -1.9407 F   0  0  0  0  0  0  0  0  0  0  0  0
    0.7686    0.0240   -1.9670 F   0  0  0  0  0  0  0  0  0  0  0  0
    6.6697    2.1988    1.7481 H   0  0  0  0  0  0  0  0  0  0  0  0
    6.6231    0.5259    1.2463 H   0  0  0  0  0  0  0  0  0  0  0  0
    7.5451    0.9900    2.6564 H   0  0  0  0  0  0  0  0  0  0  0  0
    4.3515    1.9717    4.4604 H   0  0  0  0  0  0  0  0  0  0  0  0
    5.3549    3.0107    3.4774 H   0  0  0  0  0  0  0  0  0  0  0  0
    6.0828    1.9901    4.6951 H   0  0  0  0  0  0  0  0  0  0  0  0
    5.5918   -1.1644    2.8251 H   0  0  0  0  0  0  0  0  0  0  0  0
    4.5768   -0.5927    4.1272 H   0  0  0  0  0  0  0  0  0  0  0  0
    6.3157   -0.4837    4.2622 H   0  0  0  0  0  0  0  0  0  0  0  0
    2.5261    1.3499    0.6128 H   0  0  0  0  0  0  0  0  0  0  0  0
    0.7016    1.1117    2.9120 H   0  0  0  0  0  0  0  0  0  0  0  0
   -0.8789    2.5209    1.6394 H   0  0  0  0  0  0  0  0  0  0  0  0
    0.5582    3.0451    0.7943 H   0  0  0  0  0  0  0  0  0  0  0  0
   -0.9097   -0.2439    1.6199 H   0  0  0  0  0  0  0  0  0  0  0  0
    0.5155   -0.7881    0.7674 H   0  0  0  0  0  0  0  0  0  0  0  0
   -1.8755    2.0436   -1.2624 H   0  0  0  0  0  0  0  0  0  0  0  0
   -3.2148    0.9144   -2.6958 H   0  0  0  0  0  0  0  0  0  0  0  0
   -4.9100    0.3119   -4.1405 H   0  0  0  0  0  0  0  0  0  0  0  0
   -8.3030   -3.0772   -5.4826 H   0  0  0  0  0  0  0  0  0  0  0  0
   -7.2219   -4.5828   -3.7832 H   0  0  0  0  0  0  0  0  0  0  0  0
   -4.9226   -4.0934   -1.9847 H   0  0  0  0  0  0  0  0  0  0  0  0
   -3.3278   -2.4193   -1.3937 H   0  0  0  0  0  0  0  0  0  0  0  0
  1  2  1  0  0  0  0
  1 29  1  0  0  0  0
  1 30  1  0  0  0  0
  1 31  1  0  0  0  0
  2  3  1  0  0  0  0
  2  4  1  0  0  0  0
  2 20  1  0  0  0  0
  3 32  1  0  0  0  0
  3 33  1  0  0  0  0
  3 34  1  0  0  0  0
  4 35  1  0  0  0  0
  4 36  1  0  0  0  0
  4 37  1  0  0  0  0
  5 20  1  0  0  0  0
  5 23  1  0  0  0  0
  5 21  2  0  0  0  0
  6 23  1  0  0  0  0
  6  7  1  0  0  0  0
  6  9  1  0  0  0  0
  6 39  1  1  0  0  0
  7 40  1  0  0  0  0
  7 41  1  0  0  0  0
  8  7  1  1  0  0  0
  8  9  1  0  0  0  0
  8 10  1  0  0  0  0
  8 19  1  0  0  0  0
  9 42  1  0  0  0  0
  9 43  1  0  0  0  0
 10 11  1  0  0  0  0
 10 19  1  0  0  0  0
 10 44  1  6  0  0  0
 11 24  1  0  0  0  0
 11 22  2  0  0  0  0
 12 24  1  0  0  0  0
 12 18  1  0  0  0  0
 12 13  2  0  0  0  0
 13 14  1  0  0  0  0
 13 46  1  0  0  0  0
 14 16  1  0  0  0  0
 14 25  2  0  0  0  0
 15 26  1  0  0  0  0
 15 48  1  0  0  0  0
 15 16  2  0  0  0  0
 16 17  1  0  0  0  0
 17 49  1  0  0  0  0
 17 18  2  0  0  0  0
 18 50  1  0  0  0  0
 19 27  1  0  0  0  0
 19 28  1  0  0  0  0
 23 38  1  0  0  0  0
 24 45  1  0  0  0  0
 25 26  1  0  0  0  0
 26 47  1  0  0  0  0
M  END
>  <score>
0.44057971239089966

$$$$
PV-004065556369
 OpenBabel08202115463D

 56 57  0  0  0  0  0  0  0  0999 V2000
    4.8546   -0.8077    2.9169 C   0  0  0  0  0  0  0  0  0  0  0  0
    6.7871    0.6391    2.6833 C   0  0  0  0  0  0  0  0  0  0  0  0
    4.6920    1.5442    3.5488 C   0  0  1  0  0  0  0  0  0  0  0  0
    5.4514    2.7653    3.9815 C   0  0  0  0  0  0  0  0  0  0  0  0
    3.9763    1.7072    2.2125 C   0  0  0  0  0  0  0  0  0  0  0  0
    1.8041    2.5373    1.2364 C   0  0  0  0  0  0  0  0  0  0  0  0
    0.9215    1.3565    0.9172 C   0  0  0  0  0  0  0  0  0  0  0  0
    1.1681    0.0881    1.4193 C   0  0  0  0  0  0  0  0  0  0  0  0
    0.3296   -0.9602    1.0903 C   0  0  0  0  0  0  0  0  0  0  0  0
   -0.7608   -0.7423    0.2626 C   0  0  0  0  0  0  0  0  0  0  0  0
   -1.0064    0.5223   -0.2379 C   0  0  0  0  0  0  0  0  0  0  0  0
   -2.1911    0.7593   -1.1445 C   0  0  0  0  0  0  0  0  0  0  0  0
   -3.9881   -0.4146   -2.3299 C   0  0  0  0  0  0  0  0  0  0  0  0
   -4.5507   -1.7554   -2.7412 C   0  0  1  0  0  0  0  0  0  0  0  0
   -5.9605   -1.9554   -2.1519 C   0  0  0  0  0  0  0  0  0  0  0  0
   -6.8482   -2.2614   -3.3565 C   0  0  0  0  0  0  0  0  0  0  0  0
   -6.1331   -1.5573   -4.5053 C   0  0  0  0  0  0  0  0  0  0  0  0
   -4.3600   -3.1440   -4.6858 C   0  0  0  0  0  0  0  0  0  0  0  0
   -0.1657    1.5739    0.0919 C   0  0  0  0  0  0  0  0  0  0  0  0
    5.5793    0.3473    3.4753 N   0  0  0  0  0  0  0  0  0  0  0  0
    2.7293    2.2052    2.3232 N   0  0  0  0  0  0  0  0  0  0  0  0
   -2.8715   -0.4538   -1.5973 N   0  0  0  0  0  0  0  0  0  0  0  0
   -4.7380   -1.8123   -4.1936 N   0  0  0  0  0  0  0  0  0  0  0  0
    6.3402    3.1674    2.9476 O   0  0  0  0  0  0  0  0  0  0  0  0
    4.5168    1.4024    1.1501 O   0  0  0  0  0  0  0  0  0  0  0  0
   -4.5371    0.6360   -2.6583 O   0  0  0  0  0  0  0  0  0  0  0  0
    5.4080   -1.7032    3.1087 H   0  0  0  0  0  0  0  0  0  0  0  0
    4.7391   -0.6794    1.8610 H   0  0  0  0  0  0  0  0  0  0  0  0
    3.8906   -0.8793    3.3756 H   0  0  0  0  0  0  0  0  0  0  0  0
    7.3471   -0.2615    2.5410 H   0  0  0  0  0  0  0  0  0  0  0  0
    7.3894    1.3550    3.2024 H   0  0  0  0  0  0  0  0  0  0  0  0
    6.5018    1.0356    1.7313 H   0  0  0  0  0  0  0  0  0  0  0  0
    3.9448    1.3520    4.2902 H   0  0  0  0  0  0  0  0  0  0  0  0
    6.0118    2.5410    4.8650 H   0  0  0  0  0  0  0  0  0  0  0  0
    4.7628    3.5581    4.1869 H   0  0  0  0  0  0  0  0  0  0  0  0
    5.9403    3.8767    2.4391 H   0  0  0  0  0  0  0  0  0  0  0  0
    2.4041    2.3632    3.2341 H   0  0  0  0  0  0  0  0  0  0  0  0
    2.3651    2.8036    0.3651 H   0  0  0  0  0  0  0  0  0  0  0  0
    1.1930    3.3636    1.5341 H   0  0  0  0  0  0  0  0  0  0  0  0
    1.9839   -0.0746    2.0435 H   0  0  0  0  0  0  0  0  0  0  0  0
    0.5168   -1.9126    1.4637 H   0  0  0  0  0  0  0  0  0  0  0  0
   -1.3940   -1.5304    0.0183 H   0  0  0  0  0  0  0  0  0  0  0  0
   -1.8479    1.2899   -2.0080 H   0  0  0  0  0  0  0  0  0  0  0  0
   -2.9003    1.3601   -0.6145 H   0  0  0  0  0  0  0  0  0  0  0  0
   -2.4953   -1.3256   -1.3547 H   0  0  0  0  0  0  0  0  0  0  0  0
   -3.8928   -2.5339   -2.4157 H   0  0  0  0  0  0  0  0  0  0  0  0
   -5.9675   -2.7729   -1.4615 H   0  0  0  0  0  0  0  0  0  0  0  0
   -6.2912   -1.0666   -1.6564 H   0  0  0  0  0  0  0  0  0  0  0  0
   -6.9082   -3.3154   -3.5307 H   0  0  0  0  0  0  0  0  0  0  0  0
   -7.8326   -1.8657   -3.2177 H   0  0  0  0  0  0  0  0  0  0  0  0
   -6.4040   -1.9811   -5.4498 H   0  0  0  0  0  0  0  0  0  0  0  0
   -6.3448   -0.5085   -4.5105 H   0  0  0  0  0  0  0  0  0  0  0  0
   -4.4747   -3.1776   -5.7491 H   0  0  0  0  0  0  0  0  0  0  0  0
   -4.9903   -3.8824   -4.2359 H   0  0  0  0  0  0  0  0  0  0  0  0
   -3.3398   -3.3419   -4.4309 H   0  0  0  0  0  0  0  0  0  0  0  0
   -0.3529    2.5263   -0.2815 H   0  0  0  0  0  0  0  0  0  0  0  0
  1 20  1  0  0  0  0
  1 27  1  0  0  0  0
  1 28  1  0  0  0  0
  1 29  1  0  0  0  0
  2 20  1  0  0  0  0
  2 30  1  0  0  0  0
  2 31  1  0  0  0  0
  2 32  1  0  0  0  0
  3 20  1  0  0  0  0
  3  4  1  0  0  0  0
  3  5  1  0  0  0  0
  3 33  1  1  0  0  0
  4 24  1  0  0  0  0
  4 34  1  0  0  0  0
  4 35  1  0  0  0  0
  5 21  1  0  0  0  0
  5 25  2  0  0  0  0
  6 21  1  0  0  0  0
  6  7  1  0  0  0  0
  6 38  1  0  0  0  0
  6 39  1  0  0  0  0
  7 19  1  0  0  0  0
  7  8  2  0  0  0  0
  8  9  1  0  0  0  0
  8 40  1  0  0  0  0
  9 41  1  0  0  0  0
  9 10  2  0  0  0  0
 10 11  1  0  0  0  0
 10 42  1  0  0  0  0
 11 12  1  0  0  0  0
 11 19  2  0  0  0  0
 12 22  1  0  0  0  0
 12 43  1  0  0  0  0
 12 44  1  0  0  0  0
 13 22  1  0  0  0  0
 13 14  1  0  0  0  0
 13 26  2  0  0  0  0
 14 15  1  0  0  0  0
 14 23  1  0  0  0  0
 14 46  1  1  0  0  0
 15 16  1  0  0  0  0
 15 47  1  0  0  0  0
 15 48  1  0  0  0  0
 16 17  1  0  0  0  0
 16 49  1  0  0  0  0
 16 50  1  0  0  0  0
 17 23  1  0  0  0  0
 17 51  1  0  0  0  0
 17 52  1  0  0  0  0
 18 23  1  0  0  0  0
 18 53  1  0  0  0  0
 18 54  1  0  0  0  0
 18 55  1  0  0  0  0
 19 56  1  0  0  0  0
 21 37  1  0  0  0  0
 22 45  1  0  0  0  0
 24 36  1  0  0  0  0
M  END
>  <score>
0.44069242477416992

$$$$
PV-003665679625
 OpenBabel08202115463D

 62 61  0  0  0  0  0  0  0  0999 V2000
    5.9027    2.8375    1.5197 C   0  0  0  0  0  0  0  0  0  0  0  0
    5.6769    2.1873    2.8760 C   0  0  0  0  0  0  0  0  0  0  0  0
    4.3677    1.4035    2.8887 C   0  0  1  0  0  0  0  0  0  0  0  0
    3.5478    1.7440    1.6666 C   0  0  0  0  0  0  0  0  0  0  0  0
    2.2491    0.9889    1.4608 C   0  0  0  0  0  0  0  0  0  0  0  0
    1.8604    2.5976   -0.3049 C   0  0  0  0  0  0  0  0  0  0  0  0
    0.2085    0.7929    0.1468 C   0  0  0  0  0  0  0  0  0  0  0  0
   -0.9393    1.2935    0.9959 C   0  0  0  0  0  0  0  0  0  0  0  0
   -2.9554    0.6390   -0.1736 C   0  0  0  0  0  0  0  0  0  0  0  0
   -4.1123   -0.3239   -0.2747 C   0  0  0  0  0  0  0  0  0  0  0  0
   -4.0829   -1.0656   -1.6047 C   0  0  2  0  0  0  0  0  0  0  0  0
   -5.3166   -1.8778   -1.9487 C   0  0  0  0  0  0  0  0  0  0  0  0
   -5.3769   -2.2979   -3.4248 C   0  0  0  0  0  0  0  0  0  0  0  0
   -4.2669   -3.3178   -3.7018 C   0  0  0  0  0  0  0  0  0  0  0  0
   -5.2147   -1.0878   -4.3521 C   0  0  0  0  0  0  0  0  0  0  0  0
   -6.7280   -2.9716   -3.6921 C   0  0  0  0  0  0  0  0  0  0  0  0
    4.6525   -0.0925    3.0747 C   0  0  0  0  0  0  0  0  0  0  0  0
    5.5474   -0.3651    4.2728 C   0  0  0  0  0  0  0  0  0  0  0  0
    5.1834   -0.6960    1.7846 C   0  0  0  0  0  0  0  0  0  0  0  0
    1.9514    0.0263    2.1668 O   0  0  0  0  0  0  0  0  0  0  0  0
   -2.8513    1.5032   -1.0424 O   0  0  0  0  0  0  0  0  0  0  0  0
   -2.9429   -1.9224   -1.6718 O   0  0  0  0  0  0  0  0  0  0  0  0
    1.4724    1.4343    0.4820 N   0  0  0  0  0  0  0  0  0  0  0  0
   -2.1311    0.4686    0.8656 N   0  0  0  0  0  0  0  0  0  0  0  0
    6.0097    2.0785    0.7731 H   0  0  0  0  0  0  0  0  0  0  0  0
    6.7914    3.4324    1.5531 H   0  0  0  0  0  0  0  0  0  0  0  0
    5.0657    3.4590    1.2786 H   0  0  0  0  0  0  0  0  0  0  0  0
    5.6377    2.9479    3.6275 H   0  0  0  0  0  0  0  0  0  0  0  0
    6.4871    1.5204    3.0846 H   0  0  0  0  0  0  0  0  0  0  0  0
    3.8117    1.7278    3.7435 H   0  0  0  0  0  0  0  0  0  0  0  0
    4.1618    1.5646    0.8089 H   0  0  0  0  0  0  0  0  0  0  0  0
    3.3074    2.7852    1.7223 H   0  0  0  0  0  0  0  0  0  0  0  0
    1.4254    3.4778    0.1205 H   0  0  0  0  0  0  0  0  0  0  0  0
    1.5143    2.4793   -1.3104 H   0  0  0  0  0  0  0  0  0  0  0  0
    2.9264    2.6900   -0.3026 H   0  0  0  0  0  0  0  0  0  0  0  0
    0.3095   -0.2620    0.2944 H   0  0  0  0  0  0  0  0  0  0  0  0
   -0.0141    0.9900   -0.8811 H   0  0  0  0  0  0  0  0  0  0  0  0
   -1.1787    2.2919    0.6946 H   0  0  0  0  0  0  0  0  0  0  0  0
   -0.6328    1.2935    2.0211 H   0  0  0  0  0  0  0  0  0  0  0  0
   -2.3301   -0.2133    1.5408 H   0  0  0  0  0  0  0  0  0  0  0  0
   -5.0300    0.2209   -0.1971 H   0  0  0  0  0  0  0  0  0  0  0  0
   -4.0493   -1.0331    0.5240 H   0  0  0  0  0  0  0  0  0  0  0  0
   -3.9799   -0.3230   -2.3681 H   0  0  0  0  0  0  0  0  0  0  0  0
   -2.6568   -2.1453   -0.7830 H   0  0  0  0  0  0  0  0  0  0  0  0
   -6.1826   -1.2893   -1.7278 H   0  0  0  0  0  0  0  0  0  0  0  0
   -5.3210   -2.7607   -1.3443 H   0  0  0  0  0  0  0  0  0  0  0  0
   -3.3133   -2.8619   -3.5354 H   0  0  0  0  0  0  0  0  0  0  0  0
   -4.3317   -3.6480   -4.7176 H   0  0  0  0  0  0  0  0  0  0  0  0
   -4.3808   -4.1555   -3.0460 H   0  0  0  0  0  0  0  0  0  0  0  0
   -5.2125   -1.4160   -5.3705 H   0  0  0  0  0  0  0  0  0  0  0  0
   -4.2909   -0.5936   -4.1348 H   0  0  0  0  0  0  0  0  0  0  0  0
   -6.0276   -0.4093   -4.1980 H   0  0  0  0  0  0  0  0  0  0  0  0
   -6.8193   -3.8443   -3.0798 H   0  0  0  0  0  0  0  0  0  0  0  0
   -6.7889   -3.2516   -4.7230 H   0  0  0  0  0  0  0  0  0  0  0  0
   -7.5187   -2.2891   -3.4600 H   0  0  0  0  0  0  0  0  0  0  0  0
    3.7126   -0.5630    3.2748 H   0  0  0  0  0  0  0  0  0  0  0  0
    6.4661    0.1722    4.1619 H   0  0  0  0  0  0  0  0  0  0  0  0
    5.7527   -1.4134    4.3332 H   0  0  0  0  0  0  0  0  0  0  0  0
    5.0534   -0.0457    5.1666 H   0  0  0  0  0  0  0  0  0  0  0  0
    5.6397   -1.6410    1.9936 H   0  0  0  0  0  0  0  0  0  0  0  0
    5.9089   -0.0372    1.3550 H   0  0  0  0  0  0  0  0  0  0  0  0
    4.3754   -0.8346    1.0970 H   0  0  0  0  0  0  0  0  0  0  0  0
  1  2  1  0  0  0  0
  1 25  1  0  0  0  0
  1 26  1  0  0  0  0
  1 27  1  0  0  0  0
  2  3  1  0  0  0  0
  2 28  1  0  0  0  0
  2 29  1  0  0  0  0
  3  4  1  0  0  0  0
  3 17  1  0  0  0  0
  3 30  1  1  0  0  0
  4  5  1  0  0  0  0
  4 31  1  0  0  0  0
  4 32  1  0  0  0  0
  5 23  1  0  0  0  0
  5 20  2  0  0  0  0
  6 23  1  0  0  0  0
  6 33  1  0  0  0  0
  6 34  1  0  0  0  0
  6 35  1  0  0  0  0
  7 23  1  0  0  0  0
  7  8  1  0  0  0  0
  7 36  1  0  0  0  0
  7 37  1  0  0  0  0
  8 24  1  0  0  0  0
  8 38  1  0  0  0  0
  8 39  1  0  0  0  0
  9 24  1  0  0  0  0
  9 10  1  0  0  0  0
  9 21  2  0  0  0  0
 10 11  1  0  0  0  0
 10 41  1  0  0  0  0
 10 42  1  0  0  0  0
 11 22  1  0  0  0  0
 11 12  1  0  0  0  0
 11 43  1  6  0  0  0
 12 13  1  0  0  0  0
 12 45  1  0  0  0  0
 12 46  1  0  0  0  0
 13 14  1  0  0  0  0
 13 15  1  0  0  0  0
 13 16  1  0  0  0  0
 14 47  1  0  0  0  0
 14 48  1  0  0  0  0
 14 49  1  0  0  0  0
 15 50  1  0  0  0  0
 15 51  1  0  0  0  0
 15 52  1  0  0  0  0
 16 53  1  0  0  0  0
 16 54  1  0  0  0  0
 16 55  1  0  0  0  0
 17 18  1  0  0  0  0
 17 19  1  0  0  0  0
 17 56  1  0  0  0  0
 18 57  1  0  0  0  0
 18 58  1  0  0  0  0
 18 59  1  0  0  0  0
 19 60  1  0  0  0  0
 19 61  1  0  0  0  0
 19 62  1  0  0  0  0
 22 44  1  0  0  0  0
 24 40  1  0  0  0  0
M  END
>  <score>
0.44069671630859375

$$$$
PV-004082179432
 OpenBabel08202115463D

 48 49  0  0  0  0  0  0  0  0999 V2000
    5.6689    1.4924    4.0928 C   0  0  0  0  0  0  0  0  0  0  0  0
    5.4432    1.6953    2.5929 C   0  0  0  0  0  0  0  0  0  0  0  0
    5.9174    0.4617    1.8049 C   0  0  0  0  0  0  0  0  0  0  0  0
    3.9631    1.9122    2.3016 C   0  0  0  0  0  0  0  0  0  0  0  0
    3.5441    3.1816    1.9503 C   0  0  0  0  0  0  0  0  0  0  0  0
    2.2244    3.4002    1.5868 C   0  0  0  0  0  0  0  0  0  0  0  0
    1.3263    2.3496    1.5808 C   0  0  0  0  0  0  0  0  0  0  0  0
    1.7464    1.0764    1.9331 C   0  0  0  0  0  0  0  0  0  0  0  0
    0.7668   -0.0732    1.9212 C   0  0  0  0  0  0  0  0  0  0  0  0
   -0.8360    0.1383    0.0745 C   0  0  0  0  0  0  0  0  0  0  0  0
   -2.2594    0.1089   -1.9412 C   0  0  0  0  0  0  0  0  0  0  0  0
   -3.0663   -1.1626   -2.2761 C   0  0  0  0  0  0  0  0  0  0  0  0
   -5.1559   -1.7777   -3.2225 C   0  0  0  0  0  0  0  0  0  0  0  0
   -6.2416   -1.4240   -4.0085 C   0  0  0  0  0  0  0  0  0  0  0  0
   -7.2364   -2.3476   -4.2684 C   0  0  0  0  0  0  0  0  0  0  0  0
   -7.1460   -3.6290   -3.7475 C   0  0  0  0  0  0  0  0  0  0  0  0
   -6.0634   -3.9814   -2.9638 C   0  0  0  0  0  0  0  0  0  0  0  0
   -5.0656   -3.0553   -2.7031 C   0  0  0  0  0  0  0  0  0  0  0  0
    3.0623    0.8587    2.2956 C   0  0  0  0  0  0  0  0  0  0  0  0
    6.2230    2.8182    2.2073 O   0  0  0  0  0  0  0  0  0  0  0  0
   -1.5689    0.8847    0.7026 O   0  0  0  0  0  0  0  0  0  0  0  0
   -4.2396   -0.7796   -3.0307 O   0  0  0  0  0  0  0  0  0  0  0  0
    0.3133   -0.4135    0.5728 N   0  0  0  0  0  0  0  0  0  0  0  0
   -1.0615   -0.2378   -1.1847 N   0  0  0  0  0  0  0  0  0  0  0  0
   -3.3758   -1.7763   -1.1156 F   0  0  0  0  0  0  0  0  0  0  0  0
   -2.2938   -2.0320   -2.9446 F   0  0  0  0  0  0  0  0  0  0  0  0
    6.7145    1.3684    4.2831 H   0  0  0  0  0  0  0  0  0  0  0  0
    5.1416    0.6199    4.4178 H   0  0  0  0  0  0  0  0  0  0  0  0
    5.3084    2.3470    4.6263 H   0  0  0  0  0  0  0  0  0  0  0  0
    5.4058   -0.4080    2.1610 H   0  0  0  0  0  0  0  0  0  0  0  0
    6.9713    0.3357    1.9404 H   0  0  0  0  0  0  0  0  0  0  0  0
    5.7049    0.5995    0.7653 H   0  0  0  0  0  0  0  0  0  0  0  0
    6.0516    3.0263    1.2859 H   0  0  0  0  0  0  0  0  0  0  0  0
    4.2190    3.9728    1.9587 H   0  0  0  0  0  0  0  0  0  0  0  0
    1.9101    4.3546    1.3185 H   0  0  0  0  0  0  0  0  0  0  0  0
    0.3353    2.5142    1.3120 H   0  0  0  0  0  0  0  0  0  0  0  0
   -0.0844    0.1963    2.5108 H   0  0  0  0  0  0  0  0  0  0  0  0
    1.2409   -0.9314    2.3497 H   0  0  0  0  0  0  0  0  0  0  0  0
    0.8334   -1.0379    0.0251 H   0  0  0  0  0  0  0  0  0  0  0  0
   -0.3789   -0.7818   -1.6302 H   0  0  0  0  0  0  0  0  0  0  0  0
   -1.9742    0.5958   -2.8503 H   0  0  0  0  0  0  0  0  0  0  0  0
   -2.8667    0.7690   -1.3578 H   0  0  0  0  0  0  0  0  0  0  0  0
   -6.3074   -0.4639   -4.4027 H   0  0  0  0  0  0  0  0  0  0  0  0
   -8.0530   -2.0811   -4.8548 H   0  0  0  0  0  0  0  0  0  0  0  0
   -7.8926   -4.3252   -3.9464 H   0  0  0  0  0  0  0  0  0  0  0  0
   -5.9975   -4.9416   -2.5697 H   0  0  0  0  0  0  0  0  0  0  0  0
   -4.2491   -3.3217   -2.1167 H   0  0  0  0  0  0  0  0  0  0  0  0
    3.3766   -0.0957    2.5638 H   0  0  0  0  0  0  0  0  0  0  0  0
  1  2  1  0  0  0  0
  1 27  1  0  0  0  0
  1 28  1  0  0  0  0
  1 29  1  0  0  0  0
  2  3  1  0  0  0  0
  2 20  1  0  0  0  0
  2  4  1  0  0  0  0
  3 30  1  0  0  0  0
  3 31  1  0  0  0  0
  3 32  1  0  0  0  0
  4 19  1  0  0  0  0
  4  5  2  0  0  0  0
  5  6  1  0  0  0  0
  5 34  1  0  0  0  0
  6 35  1  0  0  0  0
  6  7  2  0  0  0  0
  7  8  1  0  0  0  0
  7 36  1  0  0  0  0
  8  9  1  0  0  0  0
  8 19  2  0  0  0  0
  9 23  1  0  0  0  0
  9 37  1  0  0  0  0
  9 38  1  0  0  0  0
 10 23  1  0  0  0  0
 10 24  1  0  0  0  0
 10 21  2  0  0  0  0
 11 24  1  0  0  0  0
 11 12  1  0  0  0  0
 11 41  1  0  0  0  0
 11 42  1  0  0  0  0
 12 25  1  0  0  0  0
 12 26  1  0  0  0  0
 12 22  1  0  0  0  0
 13 22  1  0  0  0  0
 13 18  1  0  0  0  0
 13 14  2  0  0  0  0
 14 15  1  0  0  0  0
 14 43  1  0  0  0  0
 15 44  1  0  0  0  0
 15 16  2  0  0  0  0
 16 17  1  0  0  0  0
 16 45  1  0  0  0  0
 17 46  1  0  0  0  0
 17 18  2  0  0  0  0
 18 47  1  0  0  0  0
 19 48  1  0  0  0  0
 20 33  1  0  0  0  0
 23 39  1  0  0  0  0
 24 40  1  0  0  0  0
M  END
>  <score>
0.44081509113311768

$$$$
PV-003647455554
 OpenBabel08202115463D

 57 58  0  0  0  0  0  0  0  0999 V2000
    5.5264    2.9425    3.4780 C   0  0  0  0  0  0  0  0  0  0  0  0
    4.3532    2.6091    2.5692 C   0  0  0  0  0  0  0  0  0  0  0  0
    4.5331    1.2941    1.8024 C   0  0  0  0  0  0  0  0  0  0  0  0
    4.7266    0.1493    2.8040 C   0  0  0  0  0  0  0  0  0  0  0  0
    5.7952    1.4006    0.9387 C   0  0  0  0  0  0  0  0  0  0  0  0
    3.3274    1.0311    0.9097 C   0  0  0  0  0  0  0  0  0  0  0  0
    2.0398    0.8879    1.6827 C   0  0  0  0  0  0  0  0  0  0  0  0
   -0.4083    0.4676    1.6091 C   0  0  0  0  0  0  0  0  0  0  0  0
   -1.3662    0.4934    0.4163 C   0  0  2  0  0  0  0  0  0  0  0  0
   -2.5095   -0.4681    0.6270 C   0  0  0  0  0  0  0  0  0  0  0  0
   -3.7831   -1.5795   -1.1808 C   0  0  0  0  0  0  0  0  0  0  0  0
   -4.9199   -1.4309   -2.1543 C   0  0  0  0  0  0  0  0  0  0  0  0
   -5.2699   -2.6821   -2.9431 C   0  0  0  0  0  0  0  0  0  0  0  0
   -6.5845   -2.4779   -3.6718 C   0  0  0  0  0  0  0  0  0  0  0  0
   -5.0056   -4.0628   -2.4303 C   0  0  0  0  0  0  0  0  0  0  0  0
   -4.2317   -3.5416   -3.6006 C   0  0  0  0  0  0  0  0  0  0  0  0
   -0.5058    0.0592   -0.7606 C   0  0  0  0  0  0  0  0  0  0  0  0
    0.8246    0.7340   -0.4782 C   0  0  1  0  0  0  0  0  0  0  0  0
    0.8351    2.1735   -1.0066 C   0  0  0  0  0  0  0  0  0  0  0  0
    2.0335    0.9334    2.9122 O   0  0  0  0  0  0  0  0  0  0  0  0
   -3.1754   -2.6319   -1.0730 O   0  0  0  0  0  0  0  0  0  0  0  0
    0.9040    0.7099    0.9896 N   0  0  0  0  0  0  0  0  0  0  0  0
   -3.4936   -0.4948   -0.4565 N   0  0  0  0  0  0  0  0  0  0  0  0
   -7.0589   -3.6628   -4.0393 F   0  0  0  0  0  0  0  0  0  0  0  0
   -6.3139   -1.7862   -4.8169 F   0  0  0  0  0  0  0  0  0  0  0  0
    5.4090    3.9623    3.7799 H   0  0  0  0  0  0  0  0  0  0  0  0
    6.4478    2.8201    2.9480 H   0  0  0  0  0  0  0  0  0  0  0  0
    5.5199    2.3026    4.3356 H   0  0  0  0  0  0  0  0  0  0  0  0
    4.2373    3.4021    1.8603 H   0  0  0  0  0  0  0  0  0  0  0  0
    3.4702    2.5341    3.1688 H   0  0  0  0  0  0  0  0  0  0  0  0
    4.9775    0.5523    3.7630 H   0  0  0  0  0  0  0  0  0  0  0  0
    5.5169   -0.4888    2.4677 H   0  0  0  0  0  0  0  0  0  0  0  0
    3.8204   -0.4145    2.8804 H   0  0  0  0  0  0  0  0  0  0  0  0
    6.4923    2.0648    1.4053 H   0  0  0  0  0  0  0  0  0  0  0  0
    5.5348    1.7787   -0.0278 H   0  0  0  0  0  0  0  0  0  0  0  0
    6.2394    0.4326    0.8358 H   0  0  0  0  0  0  0  0  0  0  0  0
    3.4989    0.1273    0.3633 H   0  0  0  0  0  0  0  0  0  0  0  0
    3.2252    1.8479    0.2261 H   0  0  0  0  0  0  0  0  0  0  0  0
   -0.6493    1.2378    2.3116 H   0  0  0  0  0  0  0  0  0  0  0  0
   -0.4316   -0.4831    2.0996 H   0  0  0  0  0  0  0  0  0  0  0  0
   -1.7524    1.4791    0.2609 H   0  0  0  0  0  0  0  0  0  0  0  0
   -3.0145   -0.1927    1.5292 H   0  0  0  0  0  0  0  0  0  0  0  0
   -2.1024   -1.4521    0.7317 H   0  0  0  0  0  0  0  0  0  0  0  0
   -3.9704    0.3359   -0.6638 H   0  0  0  0  0  0  0  0  0  0  0  0
   -4.6585   -0.6631   -2.8522 H   0  0  0  0  0  0  0  0  0  0  0  0
   -5.7884   -1.1334   -1.6047 H   0  0  0  0  0  0  0  0  0  0  0  0
   -7.2639   -1.9459   -3.0390 H   0  0  0  0  0  0  0  0  0  0  0  0
   -5.7337   -4.8339   -2.5718 H   0  0  0  0  0  0  0  0  0  0  0  0
   -4.5203   -4.1985   -1.4864 H   0  0  0  0  0  0  0  0  0  0  0  0
   -3.1940   -3.3040   -3.4928 H   0  0  0  0  0  0  0  0  0  0  0  0
   -4.4074   -3.9394   -4.5782 H   0  0  0  0  0  0  0  0  0  0  0  0
   -0.3992   -1.0051   -0.7869 H   0  0  0  0  0  0  0  0  0  0  0  0
   -0.9207    0.3995   -1.6863 H   0  0  0  0  0  0  0  0  0  0  0  0
    1.6334    0.1870   -0.9158 H   0  0  0  0  0  0  0  0  0  0  0  0
    1.4275    2.7869   -0.3604 H   0  0  0  0  0  0  0  0  0  0  0  0
   -0.1662    2.5497   -1.0360 H   0  0  0  0  0  0  0  0  0  0  0  0
    1.2512    2.1883   -1.9923 H   0  0  0  0  0  0  0  0  0  0  0  0
  1  2  1  0  0  0  0
  1 26  1  0  0  0  0
  1 27  1  0  0  0  0
  1 28  1  0  0  0  0
  2  3  1  0  0  0  0
  2 29  1  0  0  0  0
  2 30  1  0  0  0  0
  3  4  1  0  0  0  0
  3  5  1  0  0  0  0
  3  6  1  0  0  0  0
  4 31  1  0  0  0  0
  4 32  1  0  0  0  0
  4 33  1  0  0  0  0
  5 34  1  0  0  0  0
  5 35  1  0  0  0  0
  5 36  1  0  0  0  0
  6  7  1  0  0  0  0
  6 37  1  0  0  0  0
  6 38  1  0  0  0  0
  7 22  1  0  0  0  0
  7 20  2  0  0  0  0
  8 22  1  0  0  0  0
  8  9  1  0  0  0  0
  8 39  1  0  0  0  0
  8 40  1  0  0  0  0
  9 10  1  0  0  0  0
  9 17  1  0  0  0  0
  9 41  1  6  0  0  0
 10 23  1  0  0  0  0
 10 42  1  0  0  0  0
 10 43  1  0  0  0  0
 11 23  1  0  0  0  0
 11 12  1  0  0  0  0
 11 21  2  0  0  0  0
 12 13  1  0  0  0  0
 12 45  1  0  0  0  0
 12 46  1  0  0  0  0
 13 14  1  0  0  0  0
 13 15  1  0  0  0  0
 13 16  1  0  0  0  0
 14 24  1  0  0  0  0
 14 25  1  0  0  0  0
 14 47  1  0  0  0  0
 15 16  1  0  0  0  0
 15 48  1  0  0  0  0
 15 49  1  0  0  0  0
 16 50  1  0  0  0  0
 16 51  1  0  0  0  0
 17 18  1  0  0  0  0
 17 52  1  0  0  0  0
 17 53  1  0  0  0  0
 18 22  1  0  0  0  0
 18 19  1  0  0  0  0
 18 54  1  6  0  0  0
 19 55  1  0  0  0  0
 19 56  1  0  0  0  0
 19 57  1  0  0  0  0
 23 44  1  0  0  0  0
M  END
>  <score>
0.44085109233856201

$$$$
Z4630101409
 OpenBabel08202115463D

 46 49  0  0  0  0  0  0  0  0999 V2000
    5.6123    2.6341    4.2718 C   0  0  0  0  0  0  0  0  0  0  0  0
    6.4211    1.4088    2.2186 C   0  0  0  0  0  0  0  0  0  0  0  0
    3.1276    0.7908    2.5355 C   0  0  0  0  0  0  0  0  0  0  0  0
    3.2132    0.3862    1.2166 C   0  0  0  0  0  0  0  0  0  0  0  0
    2.2528    0.7922    0.3032 C   0  0  0  0  0  0  0  0  0  0  0  0
    1.2126    1.6061    0.7103 C   0  0  0  0  0  0  0  0  0  0  0  0
    0.1970    2.0238   -0.3268 C   0  0  0  0  0  0  0  0  0  0  0  0
   -1.8786    0.7738   -1.0212 C   0  0  0  0  0  0  0  0  0  0  0  0
   -2.0723   -0.3542   -1.7790 C   0  0  0  0  0  0  0  0  0  0  0  0
   -3.3409   -1.0274   -2.1519 C   0  0  0  0  0  0  0  0  0  0  0  0
   -3.4906   -2.0887   -3.0126 C   0  0  0  0  0  0  0  0  0  0  0  0
   -5.5112   -3.4144   -3.8261 C   0  0  0  0  0  0  0  0  0  0  0  0
   -6.8793   -3.1336   -4.3632 C   0  0  0  0  0  0  0  0  0  0  0  0
   -6.6990   -4.1129   -3.2419 C   0  0  0  0  0  0  0  0  0  0  0  0
   -4.6362   -0.7257   -1.7101 C   0  0  0  0  0  0  0  0  0  0  0  0
    1.1266    2.0120    2.0329 C   0  0  0  0  0  0  0  0  0  0  0  0
    2.0842    1.6071    2.9435 C   0  0  0  0  0  0  0  0  0  0  0  0
    5.6427    1.4171    3.4374 N   0  0  0  0  0  0  0  0  0  0  0  0
   -0.5443    0.9550   -0.9959 N   0  0  0  0  0  0  0  0  0  0  0  0
   -4.8136   -2.3747   -3.0559 N   0  0  0  0  0  0  0  0  0  0  0  0
   -5.5358   -1.5501   -2.2549 N   0  0  0  0  0  0  0  0  0  0  0  0
   -0.8451   -0.8064   -2.1723 N   0  0  0  0  0  0  0  0  0  0  0  0
    0.0810   -0.0135   -1.6966 N   0  0  0  0  0  0  0  0  0  0  0  0
    4.4079    0.3667    3.6705 S   0  0  0  0  0  0  0  0  0  0  0  0
    3.9149    0.6035    4.9917 O   0  0  0  0  0  0  0  0  0  0  0  0
    4.8959   -0.9287    3.3120 O   0  0  0  0  0  0  0  0  0  0  0  0
    4.9514    3.3519    3.8327 H   0  0  0  0  0  0  0  0  0  0  0  0
    6.5971    3.0479    4.3346 H   0  0  0  0  0  0  0  0  0  0  0  0
    5.2665    2.3848    5.2532 H   0  0  0  0  0  0  0  0  0  0  0  0
    7.0044    2.3039    2.1613 H   0  0  0  0  0  0  0  0  0  0  0  0
    5.7635    1.3573    1.3761 H   0  0  0  0  0  0  0  0  0  0  0  0
    7.0712    0.5589    2.2168 H   0  0  0  0  0  0  0  0  0  0  0  0
    3.9982   -0.2230    0.9095 H   0  0  0  0  0  0  0  0  0  0  0  0
    2.3150    0.4844   -0.6882 H   0  0  0  0  0  0  0  0  0  0  0  0
    0.7148    2.5788   -1.0809 H   0  0  0  0  0  0  0  0  0  0  0  0
   -0.5164    2.6580    0.1568 H   0  0  0  0  0  0  0  0  0  0  0  0
   -2.6053    1.3617   -0.5652 H   0  0  0  0  0  0  0  0  0  0  0  0
   -2.7333   -2.5781   -3.5310 H   0  0  0  0  0  0  0  0  0  0  0  0
   -4.8914   -4.0195   -4.4543 H   0  0  0  0  0  0  0  0  0  0  0  0
   -7.1531   -3.4806   -5.3377 H   0  0  0  0  0  0  0  0  0  0  0  0
   -7.3431   -2.1874   -4.1777 H   0  0  0  0  0  0  0  0  0  0  0  0
   -7.0340   -3.8654   -2.2563 H   0  0  0  0  0  0  0  0  0  0  0  0
   -6.8439   -5.1586   -3.4164 H   0  0  0  0  0  0  0  0  0  0  0  0
   -4.8672    0.0397   -1.0450 H   0  0  0  0  0  0  0  0  0  0  0  0
    0.3416    2.6212    2.3399 H   0  0  0  0  0  0  0  0  0  0  0  0
    2.0220    1.9149    3.9350 H   0  0  0  0  0  0  0  0  0  0  0  0
  1 18  1  0  0  0  0
  1 27  1  0  0  0  0
  1 28  1  0  0  0  0
  1 29  1  0  0  0  0
  2 18  1  0  0  0  0
  2 30  1  0  0  0  0
  2 31  1  0  0  0  0
  2 32  1  0  0  0  0
  3 17  1  0  0  0  0
  3  4  2  0  0  0  0
  4  5  1  0  0  0  0
  4 33  1  0  0  0  0
  5 34  1  0  0  0  0
  5  6  2  0  0  0  0
  6  7  1  0  0  0  0
  6 16  1  0  0  0  0
  7 19  1  0  0  0  0
  7 35  1  0  0  0  0
  7 36  1  0  0  0  0
  8 19  1  0  0  0  0
  8 37  1  0  0  0  0
  8  9  2  0  0  0  0
  9 10  1  0  0  0  0
  9 22  1  0  0  0  0
 10 15  1  0  0  0  0
 10 11  2  0  0  0  0
 11 20  1  0  0  0  0
 11 38  1  0  0  0  0
 12 20  1  0  0  0  0
 12 13  1  0  0  0  0
 12 14  1  0  0  0  0
 12 39  1  0  0  0  0
 13 14  1  0  0  0  0
 13 40  1  0  0  0  0
 13 41  1  0  0  0  0
 14 42  1  0  0  0  0
 14 43  1  0  0  0  0
 15 44  1  0  0  0  0
 15 21  2  0  0  0  0
 16 45  1  0  0  0  0
 16 17  2  0  0  0  0
 17 46  1  0  0  0  0
 19 23  1  0  0  0  0
 20 21  1  0  0  0  0
 22 23  2  0  0  0  0
 24 18  1  0  0  0  0
 24  3  1  0  0  0  0
 24 25  2  0  0  0  0
 24 26  2  0  0  0  0
M  END
>  <score>
0.44090503454208374

$$$$
Z3996494361
 OpenBabel08202115463D

 49 49  0  0  0  0  0  0  0  0999 V2000
   -8.5422   -3.9310   -4.5052 C   0  0  0  0  0  0  0  0  0  0  0  0
   -6.4830   -3.1649   -3.6746 C   0  0  0  0  0  0  0  0  0  0  0  0
   -5.8214   -2.1757   -2.7528 C   0  0  0  0  0  0  0  0  0  0  0  0
   -4.2951   -2.3515   -2.5773 C   0  0  0  0  0  0  0  0  0  0  0  0
   -3.6102   -1.2921   -1.7354 C   0  0  0  0  0  0  0  0  0  0  0  0
   -2.1060   -1.4809   -1.6367 C   0  0  0  0  0  0  0  0  0  0  0  0
   -0.1417   -0.5469   -0.5023 C   0  0  0  0  0  0  0  0  0  0  0  0
    1.7949    0.5808    0.3654 C   0  0  0  0  0  0  0  0  0  0  0  0
    2.2297    1.8643    1.0610 C   0  0  0  0  0  0  0  0  0  0  0  0
    4.1395    3.0168    2.0815 C   0  0  0  0  0  0  0  0  0  0  0  0
    3.8502    2.9880    3.5889 C   0  0  0  0  0  0  0  0  0  0  0  0
    4.4899    1.7607    4.2634 C   0  0  0  0  0  0  0  0  0  0  0  0
    6.0293    1.7508    3.9891 C   0  0  0  0  0  0  0  0  0  0  0  0
    6.3293    1.7782    2.4946 C   0  0  0  0  0  0  0  0  0  0  0  0
    5.6374    2.9832    1.7673 C   0  0  0  0  0  0  0  0  0  0  0  0
   -7.8146   -3.0746   -3.5943 O   0  0  0  0  0  0  0  0  0  0  0  0
   -5.9104   -3.9356   -4.3898 O   0  0  0  0  0  0  0  0  0  0  0  0
    0.5049   -1.5648   -0.6885 O   0  0  0  0  0  0  0  0  0  0  0  0
    1.4596    2.7968    1.2220 O   0  0  0  0  0  0  0  0  0  0  0  0
   -3.7275   -2.3507   -3.7934 F   0  0  0  0  0  0  0  0  0  0  0  0
   -4.0694   -3.5466   -2.0094 F   0  0  0  0  0  0  0  0  0  0  0  0
   -1.4595   -0.4336   -0.8440 N   0  0  0  0  0  0  0  0  0  0  0  0
    0.3730    0.5644    0.0560 N   0  0  0  0  0  0  0  0  0  0  0  0
    3.5045    1.8533    1.4606 N   0  0  0  0  0  0  0  0  0  0  0  0
   -9.5931   -3.7701   -4.3842 H   0  0  0  0  0  0  0  0  0  0  0  0
   -8.3116   -4.9542   -4.2934 H   0  0  0  0  0  0  0  0  0  0  0  0
   -8.2601   -3.7023   -5.5117 H   0  0  0  0  0  0  0  0  0  0  0  0
   -6.2771   -2.2667   -1.7890 H   0  0  0  0  0  0  0  0  0  0  0  0
   -5.9982   -1.1941   -3.1402 H   0  0  0  0  0  0  0  0  0  0  0  0
   -4.0217   -1.3248   -0.7483 H   0  0  0  0  0  0  0  0  0  0  0  0
   -3.8040   -0.3345   -2.1717 H   0  0  0  0  0  0  0  0  0  0  0  0
   -1.6933   -1.4679   -2.6238 H   0  0  0  0  0  0  0  0  0  0  0  0
   -1.9086   -2.4280   -1.1795 H   0  0  0  0  0  0  0  0  0  0  0  0
   -1.9731    0.3505   -0.5580 H   0  0  0  0  0  0  0  0  0  0  0  0
   -0.1937    1.3403    0.2488 H   0  0  0  0  0  0  0  0  0  0  0  0
    2.3449    0.4828   -0.5472 H   0  0  0  0  0  0  0  0  0  0  0  0
    2.0154   -0.2474    1.0060 H   0  0  0  0  0  0  0  0  0  0  0  0
    4.0329    1.0378    1.3335 H   0  0  0  0  0  0  0  0  0  0  0  0
    3.7234    3.9127    1.6701 H   0  0  0  0  0  0  0  0  0  0  0  0
    2.7913    2.9545    3.7390 H   0  0  0  0  0  0  0  0  0  0  0  0
    4.2463    3.8759    4.0357 H   0  0  0  0  0  0  0  0  0  0  0  0
    4.3170    1.8045    5.3185 H   0  0  0  0  0  0  0  0  0  0  0  0
    4.0523    0.8686    3.8665 H   0  0  0  0  0  0  0  0  0  0  0  0
    6.4524    0.8640    4.4126 H   0  0  0  0  0  0  0  0  0  0  0  0
    6.4699    2.6111    4.4482 H   0  0  0  0  0  0  0  0  0  0  0  0
    7.3876    1.8567    2.3581 H   0  0  0  0  0  0  0  0  0  0  0  0
    5.9794    0.8665    2.0573 H   0  0  0  0  0  0  0  0  0  0  0  0
    6.0859    3.8969    2.0972 H   0  0  0  0  0  0  0  0  0  0  0  0
    5.7723    2.8801    0.7108 H   0  0  0  0  0  0  0  0  0  0  0  0
  1 16  1  0  0  0  0
  1 25  1  0  0  0  0
  1 26  1  0  0  0  0
  1 27  1  0  0  0  0
  2 16  1  0  0  0  0
  2  3  1  0  0  0  0
  2 17  2  0  0  0  0
  3  4  1  0  0  0  0
  3 28  1  0  0  0  0
  3 29  1  0  0  0  0
  4 20  1  0  0  0  0
  4 21  1  0  0  0  0
  4  5  1  0  0  0  0
  5  6  1  0  0  0  0
  5 30  1  0  0  0  0
  5 31  1  0  0  0  0
  6 22  1  0  0  0  0
  6 32  1  0  0  0  0
  6 33  1  0  0  0  0
  7 22  1  0  0  0  0
  7 23  1  0  0  0  0
  7 18  2  0  0  0  0
  8 23  1  0  0  0  0
  8  9  1  0  0  0  0
  8 36  1  0  0  0  0
  8 37  1  0  0  0  0
  9 24  1  0  0  0  0
  9 19  2  0  0  0  0
 10 24  1  0  0  0  0
 10 11  1  0  0  0  0
 10 15  1  0  0  0  0
 10 39  1  0  0  0  0
 11 12  1  0  0  0  0
 11 40  1  0  0  0  0
 11 41  1  0  0  0  0
 12 13  1  0  0  0  0
 12 42  1  0  0  0  0
 12 43  1  0  0  0  0
 13 14  1  0  0  0  0
 13 44  1  0  0  0  0
 13 45  1  0  0  0  0
 14 15  1  0  0  0  0
 14 46  1  0  0  0  0
 14 47  1  0  0  0  0
 15 48  1  0  0  0  0
 15 49  1  0  0  0  0
 22 34  1  0  0  0  0
 23 35  1  0  0  0  0
 24 38  1  0  0  0  0
M  END
>  <score>
0.4409186840057373

$$$$
Z4303959506
 OpenBabel08202115463D

 56 58  0  0  0  0  0  0  0  0999 V2000
   -7.3073   -2.6887   -2.7364 C   0  0  0  0  0  0  0  0  0  0  0  0
   -5.9305   -0.7396   -2.7465 C   0  0  0  0  0  0  0  0  0  0  0  0
   -4.5211   -0.1824   -2.8570 C   0  0  0  0  0  0  0  0  0  0  0  0
   -3.6147   -0.7991   -1.8162 C   0  0  0  0  0  0  0  0  0  0  0  0
   -1.2906   -0.7292   -0.9731 C   0  0  0  0  0  0  0  0  0  0  0  0
   -1.5224    0.6716   -0.3591 C   0  0  1  0  0  0  0  0  0  0  0  0
   -0.2726    1.3747    0.1163 C   0  0  0  0  0  0  0  0  0  0  0  0
    1.2356    1.7223    2.0557 C   0  0  0  0  0  0  0  0  0  0  0  0
    2.4779    0.8538    1.9415 C   0  0  0  0  0  0  0  0  0  0  0  0
    5.2439    0.1499    2.6077 C   0  0  0  0  0  0  0  0  0  0  0  0
    6.5135    0.5311    3.3799 C   0  0  0  0  0  0  0  0  0  0  0  0
    7.1590    1.7622    2.7634 C   0  0  0  0  0  0  0  0  0  0  0  0
    6.2447    1.3293    0.6423 C   0  0  0  0  0  0  0  0  0  0  0  0
    5.5549    0.0680    1.1093 C   0  0  0  0  0  0  0  0  0  0  0  0
   -2.0088    1.0854   -1.7645 C   0  0  0  0  0  0  0  0  0  0  0  0
   -3.6730   -2.3080   -1.8995 C   0  0  0  0  0  0  0  0  0  0  0  0
   -5.1110   -2.7966   -1.8108 C   0  0  0  0  0  0  0  0  0  0  0  0
   -5.9289   -2.1952   -2.8590 N   0  0  0  0  0  0  0  0  0  0  0  0
   -2.2344   -0.3535   -2.0500 N   0  0  2  0  0  0  0  0  0  0  0  0
    0.0821    1.1369    1.3890 N   0  0  0  0  0  0  0  0  0  0  0  0
    0.3667    2.1149   -0.6301 O   0  0  0  0  0  0  0  0  0  0  0  0
    3.6752    1.3445    4.3013 O   0  0  0  0  0  0  0  0  0  0  0  0
    4.4349    2.6439    2.3425 O   0  0  0  0  0  0  0  0  0  0  0  0
    7.4404    1.5648    1.3780 O   0  0  0  0  0  0  0  0  0  0  0  0
    3.9722    1.4013    2.8890 S   0  0  0  0  0  0  0  0  0  0  0  0
   -7.7394   -2.3201   -1.8296 H   0  0  0  0  0  0  0  0  0  0  0  0
   -7.3026   -3.7586   -2.7198 H   0  0  0  0  0  0  0  0  0  0  0  0
   -7.8837   -2.3470   -3.5706 H   0  0  0  0  0  0  0  0  0  0  0  0
   -6.5313   -0.3290   -3.5310 H   0  0  0  0  0  0  0  0  0  0  0  0
   -6.3427   -0.4626   -1.7988 H   0  0  0  0  0  0  0  0  0  0  0  0
   -4.5510    0.8773   -2.7119 H   0  0  0  0  0  0  0  0  0  0  0  0
   -4.1342   -0.3988   -3.8308 H   0  0  0  0  0  0  0  0  0  0  0  0
   -3.9308   -0.4867   -0.8429 H   0  0  0  0  0  0  0  0  0  0  0  0
   -0.2889   -0.9100   -1.3029 H   0  0  0  0  0  0  0  0  0  0  0  0
   -1.6170   -1.5430   -0.3598 H   0  0  0  0  0  0  0  0  0  0  0  0
   -2.2680    0.7116    0.4072 H   0  0  0  0  0  0  0  0  0  0  0  0
   -0.4779    0.5227    1.9082 H   0  0  0  0  0  0  0  0  0  0  0  0
    1.0029    1.8531    3.0919 H   0  0  0  0  0  0  0  0  0  0  0  0
    1.4410    2.6744    1.6128 H   0  0  0  0  0  0  0  0  0  0  0  0
    2.7486    0.8113    0.9072 H   0  0  0  0  0  0  0  0  0  0  0  0
    2.2195   -0.1265    2.2836 H   0  0  0  0  0  0  0  0  0  0  0  0
    4.8916   -0.8007    2.9501 H   0  0  0  0  0  0  0  0  0  0  0  0
    6.2578    0.7394    4.3978 H   0  0  0  0  0  0  0  0  0  0  0  0
    7.2054   -0.2844    3.3452 H   0  0  0  0  0  0  0  0  0  0  0  0
    8.0738    1.9700    3.2781 H   0  0  0  0  0  0  0  0  0  0  0  0
    6.4934    2.5934    2.8683 H   0  0  0  0  0  0  0  0  0  0  0  0
    5.5829    2.1592    0.7770 H   0  0  0  0  0  0  0  0  0  0  0  0
    6.4872    1.2306   -0.3952 H   0  0  0  0  0  0  0  0  0  0  0  0
    4.6412   -0.0552    0.5663 H   0  0  0  0  0  0  0  0  0  0  0  0
    6.1942   -0.7707    0.9278 H   0  0  0  0  0  0  0  0  0  0  0  0
   -1.2619    1.5481   -2.3752 H   0  0  0  0  0  0  0  0  0  0  0  0
   -2.8956    1.6841   -1.7696 H   0  0  0  0  0  0  0  0  0  0  0  0
   -3.2514   -2.6247   -2.8306 H   0  0  0  0  0  0  0  0  0  0  0  0
   -3.1097   -2.7262   -1.0917 H   0  0  0  0  0  0  0  0  0  0  0  0
   -5.1271   -3.8608   -1.9208 H   0  0  0  0  0  0  0  0  0  0  0  0
   -5.5135   -2.5301   -0.8559 H   0  0  0  0  0  0  0  0  0  0  0  0
  1 18  1  0  0  0  0
  1 26  1  0  0  0  0
  1 27  1  0  0  0  0
  1 28  1  0  0  0  0
  2 18  1  0  0  0  0
  2  3  1  0  0  0  0
  2 29  1  0  0  0  0
  2 30  1  0  0  0  0
  3  4  1  0  0  0  0
  3 31  1  0  0  0  0
  3 32  1  0  0  0  0
  4 16  1  0  0  0  0
  4 33  1  0  0  0  0
  5 19  1  0  0  0  0
  5  6  1  0  0  0  0
  5 34  1  0  0  0  0
  5 35  1  0  0  0  0
  6  7  1  0  0  0  0
  6 15  1  0  0  0  0
  6 36  1  1  0  0  0
  7 20  1  0  0  0  0
  7 21  2  0  0  0  0
  8 20  1  0  0  0  0
  8  9  1  0  0  0  0
  8 38  1  0  0  0  0
  8 39  1  0  0  0  0
  9 40  1  0  0  0  0
  9 41  1  0  0  0  0
 10 11  1  0  0  0  0
 10 14  1  0  0  0  0
 10 42  1  0  0  0  0
 11 12  1  0  0  0  0
 11 43  1  0  0  0  0
 11 44  1  0  0  0  0
 12 24  1  0  0  0  0
 12 45  1  0  0  0  0
 12 46  1  0  0  0  0
 13 24  1  0  0  0  0
 13 14  1  0  0  0  0
 13 47  1  0  0  0  0
 13 48  1  0  0  0  0
 14 49  1  0  0  0  0
 14 50  1  0  0  0  0
 15 19  1  0  0  0  0
 15 51  1  0  0  0  0
 15 52  1  0  0  0  0
 16 17  1  0  0  0  0
 16 53  1  0  0  0  0
 16 54  1  0  0  0  0
 17 18  1  0  0  0  0
 17 55  1  0  0  0  0
 17 56  1  0  0  0  0
 19  4  1  1  0  0  0
 20 37  1  0  0  0  0
 25  9  1  0  0  0  0
 25 10  1  0  0  0  0
 25 22  2  0  0  0  0
 25 23  2  0  0  0  0
M  END
>  <score>
0.44094938039779663

$$$$
Z4386898583
 OpenBabel08202115463D

 44 46  0  0  0  0  0  0  0  0999 V2000
   -6.2578   -4.3675   -3.5325 C   0  0  0  0  0  0  0  0  0  0  0  0
   -4.8181   -2.7585   -2.5474 C   0  0  0  0  0  0  0  0  0  0  0  0
   -2.9405   -1.2757   -1.8264 C   0  0  0  0  0  0  0  0  0  0  0  0
   -3.7944   -0.3685   -1.2279 C   0  0  0  0  0  0  0  0  0  0  0  0
   -3.2813    0.7529   -0.5948 C   0  0  0  0  0  0  0  0  0  0  0  0
   -1.9161    0.9665   -0.5667 C   0  0  0  0  0  0  0  0  0  0  0  0
   -1.0596    0.0567   -1.1669 C   0  0  0  0  0  0  0  0  0  0  0  0
    0.8211    1.2325   -0.0714 C   0  0  1  0  0  0  0  0  0  0  0  0
    0.2301    0.9371    1.2942 C   0  0  0  0  0  0  0  0  0  0  0  0
    2.5072    0.5953    1.5549 C   0  0  2  0  0  0  0  0  0  0  0  0
    3.7836    1.1986    2.0968 C   0  0  0  0  0  0  0  0  0  0  0  0
    3.7339    2.4965    2.5695 C   0  0  0  0  0  0  0  0  0  0  0  0
    4.8763    3.0921    3.0812 C   0  0  0  0  0  0  0  0  0  0  0  0
    6.0662    2.3897    3.1138 C   0  0  0  0  0  0  0  0  0  0  0  0
    6.1162    1.0881    2.6398 C   0  0  0  0  0  0  0  0  0  0  0  0
    4.9771    0.4944    2.1296 C   0  0  0  0  0  0  0  0  0  0  0  0
    2.3124    0.9649    0.1043 C   0  0  0  0  0  0  0  0  0  0  0  0
   -1.5713   -1.0613   -1.7981 C   0  0  0  0  0  0  0  0  0  0  0  0
   -4.9311   -3.8776   -3.2827 O   0  0  0  0  0  0  0  0  0  0  0  0
   -5.7366   -2.1600   -2.0467 O   0  0  0  0  0  0  0  0  0  0  0  0
   -3.5132   -2.3954   -2.4479 N   0  0  0  0  0  0  0  0  0  0  0  0
    0.2547    0.3534   -1.0796 N   0  0  0  0  0  0  0  0  0  0  0  0
    1.3370    1.1653    2.2241 N   0  0  0  0  0  0  0  0  0  0  0  0
   -6.8849   -3.5580   -3.8429 H   0  0  0  0  0  0  0  0  0  0  0  0
   -6.6522   -4.8008   -2.6371 H   0  0  0  0  0  0  0  0  0  0  0  0
   -6.2248   -5.1087   -4.3035 H   0  0  0  0  0  0  0  0  0  0  0  0
   -2.8767   -3.0068   -2.8739 H   0  0  0  0  0  0  0  0  0  0  0  0
   -4.8219   -0.5273   -1.2526 H   0  0  0  0  0  0  0  0  0  0  0  0
   -3.9236    1.4334   -0.1410 H   0  0  0  0  0  0  0  0  0  0  0  0
   -1.5313    1.8098   -0.0952 H   0  0  0  0  0  0  0  0  0  0  0  0
    0.8625   -0.0480   -1.7352 H   0  0  0  0  0  0  0  0  0  0  0  0
    0.6479    2.2515   -0.3480 H   0  0  0  0  0  0  0  0  0  0  0  0
   -0.1083   -0.0765    1.3494 H   0  0  0  0  0  0  0  0  0  0  0  0
   -0.5846    1.5978    1.5054 H   0  0  0  0  0  0  0  0  0  0  0  0
    1.1712    0.7114    3.0767 H   0  0  0  0  0  0  0  0  0  0  0  0
    2.5348   -0.4675    1.6763 H   0  0  0  0  0  0  0  0  0  0  0  0
    2.8395    3.0263    2.5412 H   0  0  0  0  0  0  0  0  0  0  0  0
    4.8380    4.0673    3.4406 H   0  0  0  0  0  0  0  0  0  0  0  0
    6.9243    2.8379    3.4940 H   0  0  0  0  0  0  0  0  0  0  0  0
    7.0107    0.5583    2.6681 H   0  0  0  0  0  0  0  0  0  0  0  0
    5.0155   -0.4808    1.7703 H   0  0  0  0  0  0  0  0  0  0  0  0
    2.6214    0.1591   -0.5282 H   0  0  0  0  0  0  0  0  0  0  0  0
    2.8768    1.8423   -0.1336 H   0  0  0  0  0  0  0  0  0  0  0  0
   -0.9290   -1.7418   -2.2519 H   0  0  0  0  0  0  0  0  0  0  0  0
  1 19  1  0  0  0  0
  1 24  1  0  0  0  0
  1 25  1  0  0  0  0
  1 26  1  0  0  0  0
  2 19  1  0  0  0  0
  2 21  1  0  0  0  0
  2 20  2  0  0  0  0
  3 21  1  0  0  0  0
  3 18  1  0  0  0  0
  3  4  2  0  0  0  0
  4  5  1  0  0  0  0
  4 28  1  0  0  0  0
  5 29  1  0  0  0  0
  5  6  2  0  0  0  0
  6  7  1  0  0  0  0
  6 30  1  0  0  0  0
  7 22  1  0  0  0  0
  7 18  2  0  0  0  0
  8 22  1  0  0  0  0
  8  9  1  0  0  0  0
  8 17  1  0  0  0  0
  8 32  1  6  0  0  0
  9 23  1  0  0  0  0
  9 33  1  0  0  0  0
  9 34  1  0  0  0  0
 10 23  1  0  0  0  0
 10 11  1  0  0  0  0
 10 17  1  0  0  0  0
 10 36  1  1  0  0  0
 11 16  1  0  0  0  0
 11 12  2  0  0  0  0
 12 13  1  0  0  0  0
 12 37  1  0  0  0  0
 13 38  1  0  0  0  0
 13 14  2  0  0  0  0
 14 15  1  0  0  0  0
 14 39  1  0  0  0  0
 15 40  1  0  0  0  0
 15 16  2  0  0  0  0
 16 41  1  0  0  0  0
 17 42  1  0  0  0  0
 17 43  1  0  0  0  0
 18 44  1  0  0  0  0
 21 27  1  0  0  0  0
 22 31  1  0  0  0  0
 23 35  1  0  0  0  0
M  END
>  <score>
0.44111073017120361

$$$$
Z2448324725
 OpenBabel08202115463D

 50 52  0  0  0  0  0  0  0  0999 V2000
    4.2435    1.3147   -0.1057 C   0  0  0  0  0  0  0  0  0  0  0  0
    2.8882    0.7405    1.7669 C   0  0  0  0  0  0  0  0  0  0  0  0
    1.5589    0.7989    1.0551 C   0  0  0  0  0  0  0  0  0  0  0  0
   -0.3225   -0.5935    0.1731 C   0  0  0  0  0  0  0  0  0  0  0  0
   -0.6857   -1.9102   -0.0632 C   0  0  0  0  0  0  0  0  0  0  0  0
   -1.8739   -2.1938   -0.7099 C   0  0  0  0  0  0  0  0  0  0  0  0
   -2.7047   -1.1617   -1.1175 C   0  0  0  0  0  0  0  0  0  0  0  0
   -4.3235   -2.6599   -2.0166 C   0  0  0  0  0  0  0  0  0  0  0  0
   -5.6973   -2.6091   -2.6423 C   0  0  0  0  0  0  0  0  0  0  0  0
   -6.2646   -1.3915   -2.9676 C   0  0  0  0  0  0  0  0  0  0  0  0
   -7.5232   -1.3456   -3.5467 C   0  0  0  0  0  0  0  0  0  0  0  0
   -8.2131   -2.5174   -3.7939 C   0  0  0  0  0  0  0  0  0  0  0  0
   -7.6443   -3.7388   -3.4676 C   0  0  0  0  0  0  0  0  0  0  0  0
   -6.3894   -3.7842   -2.8902 C   0  0  0  0  0  0  0  0  0  0  0  0
   -2.3423    0.1511   -0.8818 C   0  0  0  0  0  0  0  0  0  0  0  0
   -1.1507    0.4356   -0.2332 C   0  0  0  0  0  0  0  0  0  0  0  0
    5.0123    1.8050    2.1484 C   0  0  1  0  0  0  0  0  0  0  0  0
    6.0016    2.9860    1.8328 C   0  0  0  0  0  0  0  0  0  0  0  0
    5.6893    3.6232    3.2107 C   0  0  1  0  0  0  0  0  0  0  0  0
    4.7000    2.4424    3.5263 C   0  0  0  0  0  0  0  0  0  0  0  0
    3.8460    1.7314    1.2364 N   0  0  0  0  0  0  0  0  0  0  0  0
    0.9065   -0.3611    0.8336 N   0  0  0  0  0  0  0  0  0  0  0  0
    6.8519    3.6966    4.1197 N   0  0  0  0  0  0  0  0  0  0  0  0
    1.0862    1.8740    0.6884 O   0  0  0  0  0  0  0  0  0  0  0  0
   -3.8907   -1.3162   -1.7527 O   0  0  0  0  0  0  0  0  0  0  0  0
    3.3716    1.1855   -0.7124 H   0  0  0  0  0  0  0  0  0  0  0  0
    4.7779    0.3896   -0.0480 H   0  0  0  0  0  0  0  0  0  0  0  0
    4.8720    2.0639   -0.5399 H   0  0  0  0  0  0  0  0  0  0  0  0
    2.7312    0.9352    2.8073 H   0  0  0  0  0  0  0  0  0  0  0  0
    3.3020   -0.2387    1.6452 H   0  0  0  0  0  0  0  0  0  0  0  0
    1.3503   -1.1622    1.1826 H   0  0  0  0  0  0  0  0  0  0  0  0
   -0.0643   -2.6847    0.2461 H   0  0  0  0  0  0  0  0  0  0  0  0
   -2.1446   -3.1815   -0.8908 H   0  0  0  0  0  0  0  0  0  0  0  0
   -4.3648   -3.2118   -1.1008 H   0  0  0  0  0  0  0  0  0  0  0  0
   -3.6388   -3.1337   -2.6886 H   0  0  0  0  0  0  0  0  0  0  0  0
   -5.7471   -0.5095   -2.7780 H   0  0  0  0  0  0  0  0  0  0  0  0
   -7.9482   -0.4295   -3.7952 H   0  0  0  0  0  0  0  0  0  0  0  0
   -9.1591   -2.4829   -4.2247 H   0  0  0  0  0  0  0  0  0  0  0  0
   -8.1618   -4.6207   -3.6573 H   0  0  0  0  0  0  0  0  0  0  0  0
   -5.9643   -4.7003   -2.6417 H   0  0  0  0  0  0  0  0  0  0  0  0
   -2.9637    0.9256   -1.1911 H   0  0  0  0  0  0  0  0  0  0  0  0
   -0.8800    1.4233   -0.0524 H   0  0  0  0  0  0  0  0  0  0  0  0
    5.4813    0.8451    2.2066 H   0  0  0  0  0  0  0  0  0  0  0  0
    7.0204    2.6813    1.7143 H   0  0  0  0  0  0  0  0  0  0  0  0
    5.7095    3.5880    0.9979 H   0  0  0  0  0  0  0  0  0  0  0  0
    5.2202    4.5831    3.1525 H   0  0  0  0  0  0  0  0  0  0  0  0
    7.5119    4.3236    3.7567 H   0  0  0  0  0  0  0  0  0  0  0  0
    7.2572    2.8083    4.2038 H   0  0  0  0  0  0  0  0  0  0  0  0
    3.6812    2.7471    3.6448 H   0  0  0  0  0  0  0  0  0  0  0  0
    4.9921    1.8403    4.3613 H   0  0  0  0  0  0  0  0  0  0  0  0
  1 21  1  0  0  0  0
  1 26  1  0  0  0  0
  1 27  1  0  0  0  0
  1 28  1  0  0  0  0
  2 21  1  0  0  0  0
  2  3  1  0  0  0  0
  2 29  1  0  0  0  0
  2 30  1  0  0  0  0
  3 22  1  0  0  0  0
  3 24  2  0  0  0  0
  4 22  1  0  0  0  0
  4 16  1  0  0  0  0
  4  5  2  0  0  0  0
  5  6  1  0  0  0  0
  5 32  1  0  0  0  0
  6 33  1  0  0  0  0
  6  7  2  0  0  0  0
  7 25  1  0  0  0  0
  7 15  1  0  0  0  0
  8 25  1  0  0  0  0
  8  9  1  0  0  0  0
  8 34  1  0  0  0  0
  8 35  1  0  0  0  0
  9 14  1  0  0  0  0
  9 10  2  0  0  0  0
 10 11  1  0  0  0  0
 10 36  1  0  0  0  0
 11 37  1  0  0  0  0
 11 12  2  0  0  0  0
 12 13  1  0  0  0  0
 12 38  1  0  0  0  0
 13 39  1  0  0  0  0
 13 14  2  0  0  0  0
 14 40  1  0  0  0  0
 15 41  1  0  0  0  0
 15 16  2  0  0  0  0
 16 42  1  0  0  0  0
 17 21  1  0  0  0  0
 17 18  1  0  0  0  0
 17 20  1  0  0  0  0
 17 43  1  1  0  0  0
 18 19  1  0  0  0  0
 18 44  1  0  0  0  0
 18 45  1  0  0  0  0
 19 23  1  0  0  0  0
 19 20  1  0  0  0  0
 19 46  1  6  0  0  0
 20 49  1  0  0  0  0
 20 50  1  0  0  0  0
 22 31  1  0  0  0  0
 23 47  1  0  0  0  0
 23 48  1  0  0  0  0
M  END
>  <score>
0.44122910499572754

$$$$
Z3842123615
 OpenBabel08202115463D

 56 57  0  0  0  0  0  0  0  0999 V2000
   -6.6600   -2.6084   -3.9640 C   0  0  0  0  0  0  0  0  0  0  0  0
   -6.3699   -3.2525   -2.6181 C   0  0  0  0  0  0  0  0  0  0  0  0
   -7.5824   -3.2669   -1.7017 C   0  0  0  0  0  0  0  0  0  0  0  0
   -5.2029   -2.5519   -1.9492 C   0  0  0  0  0  0  0  0  0  0  0  0
   -3.9502   -2.5131   -2.8092 C   0  0  0  0  0  0  0  0  0  0  0  0
   -2.9359   -1.5429   -2.2376 C   0  0  0  0  0  0  0  0  0  0  0  0
   -2.1948   -1.8757   -1.1188 C   0  0  0  0  0  0  0  0  0  0  0  0
   -1.2788   -0.9626   -0.6342 C   0  0  0  0  0  0  0  0  0  0  0  0
   -1.1387    0.2497   -1.2869 C   0  0  0  0  0  0  0  0  0  0  0  0
    0.5178    1.2950    0.2521 C   0  0  0  0  0  0  0  0  0  0  0  0
    2.1732    2.6963    1.3818 C   0  0  0  0  0  0  0  0  0  0  0  0
    3.5857    2.1744    1.0738 C   0  0  2  0  0  0  0  0  0  0  0  0
    3.5105    0.6900    0.7008 C   0  0  0  0  0  0  0  0  0  0  0  0
    4.5722    2.3409    2.2307 C   0  0  1  0  0  0  0  0  0  0  0  0
    4.1200    1.4870    3.4095 C   0  0  0  0  0  0  0  0  0  0  0  0
    5.1476    1.5088    4.5356 C   0  0  0  0  0  0  0  0  0  0  0  0
    6.5003    1.1165    3.9804 C   0  0  0  0  0  0  0  0  0  0  0  0
    5.9721    1.8943    1.7776 C   0  0  0  0  0  0  0  0  0  0  0  0
   -2.7345   -0.3085   -2.8252 C   0  0  0  0  0  0  0  0  0  0  0  0
   -0.2382    1.2550   -0.8906 N   0  0  0  0  0  0  0  0  0  0  0  0
    1.2735    2.3964    0.2779 N   0  0  0  0  0  0  0  0  0  0  0  0
   -1.8535    0.5874   -2.3696 N   0  0  0  0  0  0  0  0  0  0  0  0
    0.5193    0.4556    1.1370 O   0  0  0  0  0  0  0  0  0  0  0  0
    4.0088    2.9743   -0.0278 O   0  0  0  0  0  0  0  0  0  0  0  0
    6.8735    1.9754    2.8926 O   0  0  0  0  0  0  0  0  0  0  0  0
   -7.4542   -3.1366   -4.4489 H   0  0  0  0  0  0  0  0  0  0  0  0
   -5.7818   -2.6468   -4.5742 H   0  0  0  0  0  0  0  0  0  0  0  0
   -6.9482   -1.5886   -3.8164 H   0  0  0  0  0  0  0  0  0  0  0  0
   -6.0818   -4.2675   -2.7961 H   0  0  0  0  0  0  0  0  0  0  0  0
   -7.2997   -3.6439   -0.7411 H   0  0  0  0  0  0  0  0  0  0  0  0
   -8.3397   -3.8949   -2.1224 H   0  0  0  0  0  0  0  0  0  0  0  0
   -7.9614   -2.2718   -1.5964 H   0  0  0  0  0  0  0  0  0  0  0  0
   -4.9742   -3.0669   -1.0397 H   0  0  0  0  0  0  0  0  0  0  0  0
   -5.4931   -1.5463   -1.7269 H   0  0  0  0  0  0  0  0  0  0  0  0
   -4.2135   -2.2028   -3.7988 H   0  0  0  0  0  0  0  0  0  0  0  0
   -3.5185   -3.4914   -2.8446 H   0  0  0  0  0  0  0  0  0  0  0  0
   -2.3246   -2.7955   -0.6513 H   0  0  0  0  0  0  0  0  0  0  0  0
   -0.7053   -1.1818    0.2052 H   0  0  0  0  0  0  0  0  0  0  0  0
   -0.1399    2.0145   -1.5020 H   0  0  0  0  0  0  0  0  0  0  0  0
    1.2201    3.0244   -0.4726 H   0  0  0  0  0  0  0  0  0  0  0  0
    1.8094    2.2260    2.2715 H   0  0  0  0  0  0  0  0  0  0  0  0
    2.2122    3.7554    1.5279 H   0  0  0  0  0  0  0  0  0  0  0  0
    2.7723    0.5500   -0.0611 H   0  0  0  0  0  0  0  0  0  0  0  0
    3.2434    0.1183    1.5650 H   0  0  0  0  0  0  0  0  0  0  0  0
    4.4631    0.3648    0.3380 H   0  0  0  0  0  0  0  0  0  0  0  0
    4.4005    3.7877    0.2984 H   0  0  0  0  0  0  0  0  0  0  0  0
    4.6049    3.3685    2.5272 H   0  0  0  0  0  0  0  0  0  0  0  0
    3.9872    0.4783    3.0784 H   0  0  0  0  0  0  0  0  0  0  0  0
    3.1904    1.8671    3.7787 H   0  0  0  0  0  0  0  0  0  0  0  0
    5.2029    2.4933    4.9509 H   0  0  0  0  0  0  0  0  0  0  0  0
    4.8585    0.8155    5.2975 H   0  0  0  0  0  0  0  0  0  0  0  0
    6.4561    0.1064    3.6303 H   0  0  0  0  0  0  0  0  0  0  0  0
    7.2335    1.1940    4.7559 H   0  0  0  0  0  0  0  0  0  0  0  0
    6.3155    2.5341    0.9917 H   0  0  0  0  0  0  0  0  0  0  0  0
    5.9295    0.8853    1.4239 H   0  0  0  0  0  0  0  0  0  0  0  0
   -3.2973   -0.0640   -3.6649 H   0  0  0  0  0  0  0  0  0  0  0  0
  1  2  1  0  0  0  0
  1 26  1  0  0  0  0
  1 27  1  0  0  0  0
  1 28  1  0  0  0  0
  2  3  1  0  0  0  0
  2  4  1  0  0  0  0
  2 29  1  0  0  0  0
  3 30  1  0  0  0  0
  3 31  1  0  0  0  0
  3 32  1  0  0  0  0
  4  5  1  0  0  0  0
  4 33  1  0  0  0  0
  4 34  1  0  0  0  0
  5  6  1  0  0  0  0
  5 35  1  0  0  0  0
  5 36  1  0  0  0  0
  6 19  1  0  0  0  0
  6  7  2  0  0  0  0
  7  8  1  0  0  0  0
  7 37  1  0  0  0  0
  8 38  1  0  0  0  0
  8  9  2  0  0  0  0
  9 20  1  0  0  0  0
  9 22  1  0  0  0  0
 10 20  1  0  0  0  0
 10 21  1  0  0  0  0
 10 23  2  0  0  0  0
 11 21  1  0  0  0  0
 11 12  1  0  0  0  0
 11 41  1  0  0  0  0
 11 42  1  0  0  0  0
 12 13  1  0  0  0  0
 12 24  1  6  0  0  0
 12 14  1  0  0  0  0
 13 43  1  0  0  0  0
 13 44  1  0  0  0  0
 13 45  1  0  0  0  0
 14 15  1  0  0  0  0
 14 18  1  0  0  0  0
 14 47  1  1  0  0  0
 15 16  1  0  0  0  0
 15 48  1  0  0  0  0
 15 49  1  0  0  0  0
 16 17  1  0  0  0  0
 16 50  1  0  0  0  0
 16 51  1  0  0  0  0
 17 25  1  0  0  0  0
 17 52  1  0  0  0  0
 17 53  1  0  0  0  0
 18 25  1  0  0  0  0
 18 54  1  0  0  0  0
 18 55  1  0  0  0  0
 19 56  1  0  0  0  0
 19 22  2  0  0  0  0
 20 39  1  0  0  0  0
 21 40  1  0  0  0  0
 24 46  1  0  0  0  0
M  END
>  <score>
0.44132137298583984

$$$$
PV-003644224693
 OpenBabel08202115463D

 55 57  0  0  0  0  0  0  0  0999 V2000
    4.8016    0.4324    4.4804 C   0  0  0  0  0  0  0  0  0  0  0  0
    4.7364    0.8205    3.0025 C   0  0  0  0  0  0  0  0  0  0  0  0
    5.0239   -0.4082    2.1389 C   0  0  0  0  0  0  0  0  0  0  0  0
    5.7639    1.8896    2.7162 C   0  0  0  0  0  0  0  0  0  0  0  0
    4.2125    3.5797    3.1023 C   0  0  0  0  0  0  0  0  0  0  0  0
    3.1147    2.5907    3.4078 C   0  0  0  0  0  0  0  0  0  0  0  0
    2.5154    0.7299    1.8342 C   0  0  0  0  0  0  0  0  0  0  0  0
    0.8376    1.1788    0.1314 C   0  0  0  0  0  0  0  0  0  0  0  0
   -0.5556    0.8566    0.6556 C   0  0  0  0  0  0  0  0  0  0  0  0
   -1.4878    0.3571   -0.4157 C   0  0  0  0  0  0  0  0  0  0  0  0
   -1.6654   -0.9930   -0.6749 C   0  0  0  0  0  0  0  0  0  0  0  0
   -2.5304   -1.3966   -1.6745 C   0  0  0  0  0  0  0  0  0  0  0  0
   -3.2243   -0.4518   -2.4141 C   0  0  0  0  0  0  0  0  0  0  0  0
   -3.9737   -2.1997   -3.8156 C   0  0  0  0  0  0  0  0  0  0  0  0
   -4.6943   -3.0571   -2.7261 C   0  0  0  0  0  0  0  0  0  0  0  0
   -6.1736   -3.1120   -3.1131 C   0  0  0  0  0  0  0  0  0  0  0  0
   -6.2710   -2.4714   -4.4910 C   0  0  0  0  0  0  0  0  0  0  0  0
   -4.8665   -2.4944   -5.0785 C   0  0  0  0  0  0  0  0  0  0  0  0
   -3.0471    0.8943   -2.1556 C   0  0  0  0  0  0  0  0  0  0  0  0
   -2.1796    1.2994   -1.1531 C   0  0  0  0  0  0  0  0  0  0  0  0
    5.4930    3.0761    3.4472 O   0  0  0  0  0  0  0  0  0  0  0  0
    2.4361   -0.4772    1.6742 O   0  0  0  0  0  0  0  0  0  0  0  0
   -3.9844   -0.7878   -3.4744 O   0  0  0  0  0  0  0  0  0  0  0  0
    3.3943    1.3386    2.6891 N   0  0  0  0  0  0  0  0  0  0  0  0
    1.7472    1.6214    1.1897 N   0  0  0  0  0  0  0  0  0  0  0  0
    3.9827   -0.2146    4.7162 H   0  0  0  0  0  0  0  0  0  0  0  0
    4.7442    1.3144    5.0834 H   0  0  0  0  0  0  0  0  0  0  0  0
    5.7237   -0.0742    4.6755 H   0  0  0  0  0  0  0  0  0  0  0  0
    6.0558   -0.6757    2.2306 H   0  0  0  0  0  0  0  0  0  0  0  0
    4.8031   -0.1845    1.1161 H   0  0  0  0  0  0  0  0  0  0  0  0
    4.4138   -1.2242    2.4658 H   0  0  0  0  0  0  0  0  0  0  0  0
    5.7502    2.1143    1.6701 H   0  0  0  0  0  0  0  0  0  0  0  0
    6.7316    1.5248    2.9906 H   0  0  0  0  0  0  0  0  0  0  0  0
    4.1983    3.7988    2.0551 H   0  0  0  0  0  0  0  0  0  0  0  0
    4.0334    4.4768    3.6574 H   0  0  0  0  0  0  0  0  0  0  0  0
    2.1738    2.9871    3.0875 H   0  0  0  0  0  0  0  0  0  0  0  0
    3.0830    2.4019    4.4606 H   0  0  0  0  0  0  0  0  0  0  0  0
    1.7952    2.5708    1.4279 H   0  0  0  0  0  0  0  0  0  0  0  0
    1.2439    0.3004   -0.3248 H   0  0  0  0  0  0  0  0  0  0  0  0
    0.7576    1.9564   -0.5993 H   0  0  0  0  0  0  0  0  0  0  0  0
   -0.9726    1.7445    1.0830 H   0  0  0  0  0  0  0  0  0  0  0  0
   -0.4696    0.1032    1.4106 H   0  0  0  0  0  0  0  0  0  0  0  0
   -1.1479   -1.7021   -0.1173 H   0  0  0  0  0  0  0  0  0  0  0  0
   -2.6607   -2.4094   -1.8717 H   0  0  0  0  0  0  0  0  0  0  0  0
   -2.9648   -2.5234   -3.9649 H   0  0  0  0  0  0  0  0  0  0  0  0
   -4.5819   -2.6009   -1.7648 H   0  0  0  0  0  0  0  0  0  0  0  0
   -4.2829   -4.0446   -2.7031 H   0  0  0  0  0  0  0  0  0  0  0  0
   -6.7631   -2.5657   -2.4068 H   0  0  0  0  0  0  0  0  0  0  0  0
   -6.5106   -4.1269   -3.1505 H   0  0  0  0  0  0  0  0  0  0  0  0
   -6.9404   -3.0296   -5.1116 H   0  0  0  0  0  0  0  0  0  0  0  0
   -6.6196   -1.4633   -4.4060 H   0  0  0  0  0  0  0  0  0  0  0  0
   -4.6382   -3.4509   -5.5004 H   0  0  0  0  0  0  0  0  0  0  0  0
   -4.7456   -1.7369   -5.8244 H   0  0  0  0  0  0  0  0  0  0  0  0
   -3.5646    1.6034   -2.7132 H   0  0  0  0  0  0  0  0  0  0  0  0
   -2.0494    2.3122   -0.9560 H   0  0  0  0  0  0  0  0  0  0  0  0
  1  2  1  0  0  0  0
  1 26  1  0  0  0  0
  1 27  1  0  0  0  0
  1 28  1  0  0  0  0
  2  3  1  0  0  0  0
  2  4  1  0  0  0  0
  2 24  1  0  0  0  0
  3 29  1  0  0  0  0
  3 30  1  0  0  0  0
  3 31  1  0  0  0  0
  4 21  1  0  0  0  0
  4 32  1  0  0  0  0
  4 33  1  0  0  0  0
  5 21  1  0  0  0  0
  5  6  1  0  0  0  0
  5 34  1  0  0  0  0
  5 35  1  0  0  0  0
  6 24  1  0  0  0  0
  6 36  1  0  0  0  0
  6 37  1  0  0  0  0
  7 24  1  0  0  0  0
  7 25  1  0  0  0  0
  7 22  2  0  0  0  0
  8 25  1  0  0  0  0
  8  9  1  0  0  0  0
  8 39  1  0  0  0  0
  8 40  1  0  0  0  0
  9 10  1  0  0  0  0
  9 41  1  0  0  0  0
  9 42  1  0  0  0  0
 10 20  1  0  0  0  0
 10 11  2  0  0  0  0
 11 12  1  0  0  0  0
 11 43  1  0  0  0  0
 12 44  1  0  0  0  0
 12 13  2  0  0  0  0
 13 23  1  0  0  0  0
 13 19  1  0  0  0  0
 14 23  1  0  0  0  0
 14 15  1  0  0  0  0
 14 18  1  0  0  0  0
 14 45  1  0  0  0  0
 15 16  1  0  0  0  0
 15 46  1  0  0  0  0
 15 47  1  0  0  0  0
 16 17  1  0  0  0  0
 16 48  1  0  0  0  0
 16 49  1  0  0  0  0
 17 18  1  0  0  0  0
 17 50  1  0  0  0  0
 17 51  1  0  0  0  0
 18 52  1  0  0  0  0
 18 53  1  0  0  0  0
 19 54  1  0  0  0  0
 19 20  2  0  0  0  0
 20 55  1  0  0  0  0
 25 38  1  0  0  0  0
M  END
>  <score>
0.44136339426040649

$$$$
PV-003074049253
 OpenBabel08202115463D

 52 53  0  0  0  0  0  0  0  0999 V2000
    1.2891    3.4911    0.4783 C   0  0  0  0  0  0  0  0  0  0  0  0
   -0.3116    1.6436    0.0181 C   0  0  0  0  0  0  0  0  0  0  0  0
   -0.4365    1.5802   -1.4841 C   0  0  0  0  0  0  0  0  0  0  0  0
   -2.2284   -0.0098   -2.0659 C   0  0  0  0  0  0  0  0  0  0  0  0
   -3.6919   -0.1291   -2.2791 C   0  0  0  0  0  0  0  0  0  0  0  0
   -5.7352   -0.9052   -2.4791 C   0  0  0  0  0  0  0  0  0  0  0  0
   -4.4791   -1.3093   -2.2212 C   0  0  0  0  0  0  0  0  0  0  0  0
   -4.0577   -2.7344   -1.8343 C   0  0  0  0  0  0  0  0  0  0  0  0
   -5.2444   -3.6911   -1.9825 C   0  0  0  0  0  0  0  0  0  0  0  0
   -3.6213   -2.7636   -0.3680 C   0  0  0  0  0  0  0  0  0  0  0  0
   -2.9495   -3.2842   -2.7276 C   0  0  0  0  0  0  0  0  0  0  0  0
    1.9547    1.1773    0.8126 C   0  0  0  0  0  0  0  0  0  0  0  0
    3.2692    1.7299    1.2805 C   0  0  0  0  0  0  0  0  0  0  0  0
    5.3745    1.0977    2.2110 C   0  0  1  0  0  0  0  0  0  0  0  0
    5.1148    1.5606    3.6509 C   0  0  0  0  0  0  0  0  0  0  0  0
    5.2721    0.2950    4.4622 C   0  0  0  0  0  0  0  0  0  0  0  0
    6.3459   -0.0777    2.4033 C   0  0  0  0  0  0  0  0  0  0  0  0
    1.0149    2.0611    0.4511 N   0  0  0  0  0  0  0  0  0  0  0  0
   -1.7968    1.2612   -1.9214 N   0  0  0  0  0  0  0  0  0  0  0  0
   -4.4287    0.9218   -2.5581 N   0  0  0  0  0  0  0  0  0  0  0  0
   -1.5023   -1.0013   -2.0296 O   0  0  0  0  0  0  0  0  0  0  0  0
   -5.7483    0.4358   -2.6827 O   0  0  0  0  0  0  0  0  0  0  0  0
    1.7996   -0.0276    0.6954 O   0  0  0  0  0  0  0  0  0  0  0  0
    4.1654    0.6689    1.5821 O   0  0  0  0  0  0  0  0  0  0  0  0
    6.2907   -0.4678    3.7465 O   0  0  0  0  0  0  0  0  0  0  0  0
    1.3602    3.8219    1.4934 H   0  0  0  0  0  0  0  0  0  0  0  0
    0.4961    4.0154   -0.0127 H   0  0  0  0  0  0  0  0  0  0  0  0
    2.2124    3.6866   -0.0259 H   0  0  0  0  0  0  0  0  0  0  0  0
   -1.0302    2.3423    0.3926 H   0  0  0  0  0  0  0  0  0  0  0  0
   -0.5139    0.6730    0.4202 H   0  0  0  0  0  0  0  0  0  0  0  0
    0.2276    0.8260   -1.8518 H   0  0  0  0  0  0  0  0  0  0  0  0
   -0.1592    2.5298   -1.8916 H   0  0  0  0  0  0  0  0  0  0  0  0
   -2.4155    1.9958   -2.1160 H   0  0  0  0  0  0  0  0  0  0  0  0
   -6.5690   -1.5257   -2.5168 H   0  0  0  0  0  0  0  0  0  0  0  0
   -4.9151   -4.6964   -1.8213 H   0  0  0  0  0  0  0  0  0  0  0  0
   -5.6521   -3.6033   -2.9679 H   0  0  0  0  0  0  0  0  0  0  0  0
   -5.9951   -3.4422   -1.2618 H   0  0  0  0  0  0  0  0  0  0  0  0
   -4.4352   -2.4524    0.2531 H   0  0  0  0  0  0  0  0  0  0  0  0
   -2.7932   -2.1004   -0.2293 H   0  0  0  0  0  0  0  0  0  0  0  0
   -3.3305   -3.7585   -0.1025 H   0  0  0  0  0  0  0  0  0  0  0  0
   -3.3835   -3.8038   -3.5561 H   0  0  0  0  0  0  0  0  0  0  0  0
   -2.3391   -3.9585   -2.1641 H   0  0  0  0  0  0  0  0  0  0  0  0
   -2.3489   -2.4757   -3.0889 H   0  0  0  0  0  0  0  0  0  0  0  0
    3.1122    2.3207    2.1587 H   0  0  0  0  0  0  0  0  0  0  0  0
    3.6907    2.3408    0.5098 H   0  0  0  0  0  0  0  0  0  0  0  0
    5.8223    1.8769    1.6303 H   0  0  0  0  0  0  0  0  0  0  0  0
    4.1270    1.9593    3.7520 H   0  0  0  0  0  0  0  0  0  0  0  0
    5.8300    2.2980    3.9502 H   0  0  0  0  0  0  0  0  0  0  0  0
    5.5965    0.5203    5.4566 H   0  0  0  0  0  0  0  0  0  0  0  0
    4.3504   -0.2471    4.5013 H   0  0  0  0  0  0  0  0  0  0  0  0
    6.0563   -0.8945    1.7757 H   0  0  0  0  0  0  0  0  0  0  0  0
    7.3404    0.2286    2.1546 H   0  0  0  0  0  0  0  0  0  0  0  0
  1 18  1  0  0  0  0
  1 26  1  0  0  0  0
  1 27  1  0  0  0  0
  1 28  1  0  0  0  0
  2 18  1  0  0  0  0
  2  3  1  0  0  0  0
  2 29  1  0  0  0  0
  2 30  1  0  0  0  0
  3 19  1  0  0  0  0
  3 31  1  0  0  0  0
  3 32  1  0  0  0  0
  4 19  1  0  0  0  0
  4  5  1  0  0  0  0
  4 21  2  0  0  0  0
  5  7  1  0  0  0  0
  5 20  2  0  0  0  0
  6 22  1  0  0  0  0
  6 34  1  0  0  0  0
  6  7  2  0  0  0  0
  7  8  1  0  0  0  0
  8  9  1  0  0  0  0
  8 10  1  0  0  0  0
  8 11  1  0  0  0  0
  9 35  1  0  0  0  0
  9 36  1  0  0  0  0
  9 37  1  0  0  0  0
 10 38  1  0  0  0  0
 10 39  1  0  0  0  0
 10 40  1  0  0  0  0
 11 41  1  0  0  0  0
 11 42  1  0  0  0  0
 11 43  1  0  0  0  0
 12 18  1  0  0  0  0
 12 13  1  0  0  0  0
 12 23  2  0  0  0  0
 13 24  1  0  0  0  0
 13 44  1  0  0  0  0
 13 45  1  0  0  0  0
 14 24  1  0  0  0  0
 14 15  1  0  0  0  0
 14 17  1  0  0  0  0
 14 46  1  6  0  0  0
 15 16  1  0  0  0  0
 15 47  1  0  0  0  0
 15 48  1  0  0  0  0
 16 25  1  0  0  0  0
 16 49  1  0  0  0  0
 16 50  1  0  0  0  0
 17 25  1  0  0  0  0
 17 51  1  0  0  0  0
 17 52  1  0  0  0  0
 19 33  1  0  0  0  0
 20 22  1  0  0  0  0
M  END
>  <score>
0.44146770238876343

$$$$
PV-003735275100
 OpenBabel08202115463D

 43 45  0  0  0  0  0  0  0  0999 V2000
   -0.9802    1.0896    1.8199 C   0  0  0  0  0  0  0  0  0  0  0  0
    0.5258    1.0862    1.7039 C   0  0  0  0  0  0  0  0  0  0  0  0
    1.3554    0.9806    2.8093 C   0  0  0  0  0  0  0  0  0  0  0  0
    2.7279    0.9881    2.6467 C   0  0  0  0  0  0  0  0  0  0  0  0
    3.2747    1.0958    1.3775 C   0  0  0  0  0  0  0  0  0  0  0  0
    4.7745    1.0981    1.1985 C   0  0  0  0  0  0  0  0  0  0  0  0
    5.3555   -0.2830    1.5335 C   0  0  0  0  0  0  0  0  0  0  0  0
    5.4729    2.1907    2.0179 C   0  0  0  0  0  0  0  0  0  0  0  0
    2.4477    1.2011    0.2752 C   0  0  0  0  0  0  0  0  0  0  0  0
    1.0711    1.1937    0.4384 C   0  0  0  0  0  0  0  0  0  0  0  0
    0.1293    1.2992   -0.7226 C   0  0  0  0  0  0  0  0  0  0  0  0
   -2.0192    0.5447   -1.3008 C   0  0  0  0  0  0  0  0  0  0  0  0
   -2.8646   -0.6434   -1.5540 C   0  0  0  0  0  0  0  0  0  0  0  0
   -2.3965   -1.8828   -1.2003 C   0  0  0  0  0  0  0  0  0  0  0  0
   -4.1763   -2.8613   -2.1431 C   0  0  0  0  0  0  0  0  0  0  0  0
   -6.1154   -3.2967   -3.2115 C   0  0  0  0  0  0  0  0  0  0  0  0
   -4.7379   -1.6394   -2.5237 C   0  0  0  0  0  0  0  0  0  0  0  0
   -4.0792   -0.4748   -2.2273 C   0  0  0  0  0  0  0  0  0  0  0  0
   -0.8173    0.2096   -0.8188 O   0  0  0  0  0  0  0  0  0  0  0  0
   -2.3613    1.6815   -1.5007 O   0  0  0  0  0  0  0  0  0  0  0  0
   -7.0413   -3.9280   -3.6937 O   0  0  0  0  0  0  0  0  0  0  0  0
   -3.0415   -3.0308   -1.4861 N   0  0  0  0  0  0  0  0  0  0  0  0
   -5.0220   -3.8565   -2.5728 N   0  0  0  0  0  0  0  0  0  0  0  0
   -5.9212   -1.9240   -3.1762 N   0  0  0  0  0  0  0  0  0  0  0  0
   -1.2640    0.7549    2.7958 H   0  0  0  0  0  0  0  0  0  0  0  0
   -1.3959    0.4340    1.0835 H   0  0  0  0  0  0  0  0  0  0  0  0
   -1.3476    2.0821    1.6626 H   0  0  0  0  0  0  0  0  0  0  0  0
    0.9451    0.8957    3.7611 H   0  0  0  0  0  0  0  0  0  0  0  0
    3.3503    0.9128    3.4765 H   0  0  0  0  0  0  0  0  0  0  0  0
    4.9795    1.2906    0.1661 H   0  0  0  0  0  0  0  0  0  0  0  0
    5.1662   -0.5103    2.5618 H   0  0  0  0  0  0  0  0  0  0  0  0
    6.4110   -0.2778    1.3582 H   0  0  0  0  0  0  0  0  0  0  0  0
    4.8942   -1.0236    0.9140 H   0  0  0  0  0  0  0  0  0  0  0  0
    6.4989    1.9253    2.1660 H   0  0  0  0  0  0  0  0  0  0  0  0
    4.9893    2.2881    2.9674 H   0  0  0  0  0  0  0  0  0  0  0  0
    5.4177    3.1209    1.4919 H   0  0  0  0  0  0  0  0  0  0  0  0
    2.8580    1.2860   -0.6767 H   0  0  0  0  0  0  0  0  0  0  0  0
    0.7075    1.3219   -1.6227 H   0  0  0  0  0  0  0  0  0  0  0  0
   -0.4194    2.2129   -0.6275 H   0  0  0  0  0  0  0  0  0  0  0  0
   -1.4955   -1.9398   -0.6839 H   0  0  0  0  0  0  0  0  0  0  0  0
   -4.8733   -4.8169   -2.4461 H   0  0  0  0  0  0  0  0  0  0  0  0
   -6.5308   -1.2575   -3.5563 H   0  0  0  0  0  0  0  0  0  0  0  0
   -4.4532    0.4613   -2.4829 H   0  0  0  0  0  0  0  0  0  0  0  0
  1  2  1  0  0  0  0
  1 25  1  0  0  0  0
  1 26  1  0  0  0  0
  1 27  1  0  0  0  0
  2 10  1  0  0  0  0
  2  3  2  0  0  0  0
  3  4  1  0  0  0  0
  3 28  1  0  0  0  0
  4 29  1  0  0  0  0
  4  5  2  0  0  0  0
  5  6  1  0  0  0  0
  5  9  1  0  0  0  0
  6  7  1  0  0  0  0
  6  8  1  0  0  0  0
  6 30  1  0  0  0  0
  7 31  1  0  0  0  0
  7 32  1  0  0  0  0
  7 33  1  0  0  0  0
  8 34  1  0  0  0  0
  8 35  1  0  0  0  0
  8 36  1  0  0  0  0
  9 37  1  0  0  0  0
  9 10  2  0  0  0  0
 10 11  1  0  0  0  0
 11 19  1  0  0  0  0
 11 38  1  0  0  0  0
 11 39  1  0  0  0  0
 12 19  1  0  0  0  0
 12 13  1  0  0  0  0
 12 20  2  0  0  0  0
 13 18  1  0  0  0  0
 13 14  2  0  0  0  0
 14 22  1  0  0  0  0
 14 40  1  0  0  0  0
 15 23  1  0  0  0  0
 15 17  1  0  0  0  0
 15 22  2  0  0  0  0
 16 23  1  0  0  0  0
 16 24  1  0  0  0  0
 16 21  2  0  0  0  0
 17 24  1  0  0  0  0
 17 18  2  0  0  0  0
 18 43  1  0  0  0  0
 23 41  1  0  0  0  0
 24 42  1  0  0  0  0
M  END
>  <score>
0.44147264957427979

$$$$
PV-003325434203
 OpenBabel08202115463D

 47 48  0  0  0  0  0  0  0  0999 V2000
    5.7444    1.6197    0.0026 C   0  0  0  0  0  0  0  0  0  0  0  0
    4.3573    1.7356    0.6133 C   0  0  0  0  0  0  0  0  0  0  0  0
    5.4892    0.6210    2.5390 C   0  0  0  0  0  0  0  0  0  0  0  0
    5.7766    1.5548    3.6876 C   0  0  0  0  0  0  0  0  0  0  0  0
    3.0449    0.6556    2.4648 C   0  0  0  0  0  0  0  0  0  0  0  0
    1.8070    0.7783    1.6810 C   0  0  0  0  0  0  0  0  0  0  0  0
    0.8793   -0.2459    1.7075 C   0  0  0  0  0  0  0  0  0  0  0  0
   -0.2934   -0.1377    0.9763 C   0  0  0  0  0  0  0  0  0  0  0  0
   -0.5326    0.9918    0.2166 C   0  0  0  0  0  0  0  0  0  0  0  0
   -1.8178    1.0379   -0.5525 C   0  0  0  0  0  0  0  0  0  0  0  0
   -3.7277   -0.2430   -1.2183 C   0  0  0  0  0  0  0  0  0  0  0  0
   -4.0768   -1.6663   -1.3911 C   0  0  1  0  0  0  0  0  0  0  0  0
   -5.6003   -1.9771   -1.2991 C   0  0  0  0  0  0  0  0  0  0  0  0
   -5.6918   -2.0125   -2.8465 C   0  0  2  0  0  0  0  0  0  0  0  0
   -6.4347   -3.2157   -3.4128 C   0  0  0  0  0  0  0  0  0  0  0  0
   -4.1376   -2.1408   -2.8601 C   0  0  0  0  0  0  0  0  0  0  0  0
    0.3980    2.0189    0.1901 C   0  0  0  0  0  0  0  0  0  0  0  0
    1.5673    1.9112    0.9191 C   0  0  0  0  0  0  0  0  0  0  0  0
    4.2362    1.0025    1.8747 N   0  0  0  0  0  0  0  0  0  0  0  0
    3.0123    0.2591    3.6002 O   0  0  0  0  0  0  0  0  0  0  0  0
   -2.1561    1.9943   -1.2007 O   0  0  0  0  0  0  0  0  0  0  0  0
   -2.5236   -0.1103   -0.4209 O   0  0  0  0  0  0  0  0  0  0  0  0
   -6.1739   -3.4004   -4.7080 F   0  0  0  0  0  0  0  0  0  0  0  0
   -7.7575   -3.0856   -3.2981 F   0  0  0  0  0  0  0  0  0  0  0  0
   -6.1005   -4.3453   -2.7855 F   0  0  0  0  0  0  0  0  0  0  0  0
    6.4766    1.9325    0.7173 H   0  0  0  0  0  0  0  0  0  0  0  0
    5.8048    2.2424   -0.8655 H   0  0  0  0  0  0  0  0  0  0  0  0
    5.9282    0.6026   -0.2741 H   0  0  0  0  0  0  0  0  0  0  0  0
    3.6433    1.3440   -0.0807 H   0  0  0  0  0  0  0  0  0  0  0  0
    4.1483    2.7689    0.7959 H   0  0  0  0  0  0  0  0  0  0  0  0
    6.2923    0.6713    1.8337 H   0  0  0  0  0  0  0  0  0  0  0  0
    5.4019   -0.3788    2.9101 H   0  0  0  0  0  0  0  0  0  0  0  0
    5.8236    2.5610    3.3267 H   0  0  0  0  0  0  0  0  0  0  0  0
    6.7126    1.2925    4.1346 H   0  0  0  0  0  0  0  0  0  0  0  0
    4.9974    1.4736    4.4164 H   0  0  0  0  0  0  0  0  0  0  0  0
    1.0610   -1.0976    2.2759 H   0  0  0  0  0  0  0  0  0  0  0  0
   -0.9933   -0.9066    0.9993 H   0  0  0  0  0  0  0  0  0  0  0  0
   -3.5645    0.1989   -2.1790 H   0  0  0  0  0  0  0  0  0  0  0  0
   -4.5335    0.2601   -0.7259 H   0  0  0  0  0  0  0  0  0  0  0  0
   -3.4601   -2.2653   -0.7540 H   0  0  0  0  0  0  0  0  0  0  0  0
   -5.8271   -2.9105   -0.8276 H   0  0  0  0  0  0  0  0  0  0  0  0
   -6.1775   -1.1984   -0.8460 H   0  0  0  0  0  0  0  0  0  0  0  0
   -6.0703   -1.1166   -3.2926 H   0  0  0  0  0  0  0  0  0  0  0  0
   -3.6524   -1.4830   -3.5506 H   0  0  0  0  0  0  0  0  0  0  0  0
   -3.7844   -3.1397   -3.0100 H   0  0  0  0  0  0  0  0  0  0  0  0
    0.2162    2.8706   -0.3784 H   0  0  0  0  0  0  0  0  0  0  0  0
    2.2672    2.6801    0.8960 H   0  0  0  0  0  0  0  0  0  0  0  0
  1  2  1  0  0  0  0
  1 26  1  0  0  0  0
  1 27  1  0  0  0  0
  1 28  1  0  0  0  0
  2 19  1  0  0  0  0
  2 29  1  0  0  0  0
  2 30  1  0  0  0  0
  3 19  1  0  0  0  0
  3  4  1  0  0  0  0
  3 31  1  0  0  0  0
  3 32  1  0  0  0  0
  4 33  1  0  0  0  0
  4 34  1  0  0  0  0
  4 35  1  0  0  0  0
  5 19  1  0  0  0  0
  5  6  1  0  0  0  0
  5 20  2  0  0  0  0
  6 18  1  0  0  0  0
  6  7  2  0  0  0  0
  7  8  1  0  0  0  0
  7 36  1  0  0  0  0
  8 37  1  0  0  0  0
  8  9  2  0  0  0  0
  9 10  1  0  0  0  0
  9 17  1  0  0  0  0
 10 22  1  0  0  0  0
 10 21  2  0  0  0  0
 11 22  1  0  0  0  0
 11 12  1  0  0  0  0
 11 38  1  0  0  0  0
 11 39  1  0  0  0  0
 12 13  1  0  0  0  0
 12 16  1  0  0  0  0
 12 40  1  1  0  0  0
 13 14  1  0  0  0  0
 13 41  1  0  0  0  0
 13 42  1  0  0  0  0
 14 15  1  0  0  0  0
 14 16  1  0  0  0  0
 14 43  1  6  0  0  0
 15 23  1  0  0  0  0
 15 24  1  0  0  0  0
 15 25  1  0  0  0  0
 16 44  1  0  0  0  0
 16 45  1  0  0  0  0
 17 46  1  0  0  0  0
 17 18  2  0  0  0  0
 18 47  1  0  0  0  0
M  END
>  <score>
0.44152313470840454

$$$$
PV-003077730612
 OpenBabel08202115463D

 39 41  0  0  0  0  0  0  0  0999 V2000
   -3.7585    0.0515   -1.6418 O   0  0  0  0  0  0  0  0  0  0  0  0
    2.6811    2.8653    1.7076 O   0  0  0  0  0  0  0  0  0  0  0  0
   -3.1077   -0.9961   -1.5702 C   0  0  0  0  0  0  0  0  0  0  0  0
   -1.2506    0.2072   -0.4970 C   0  0  0  0  0  0  0  0  0  0  0  0
    0.1227   -0.1399    0.0560 C   0  0  0  0  0  0  0  0  0  0  0  0
    0.8272    1.1053    0.5694 C   0  0  0  0  0  0  0  0  0  0  0  0
    2.9843    1.6839    1.6073 C   0  0  0  0  0  0  0  0  0  0  0  0
    4.2832    1.2058    2.0617 C   0  0  0  0  0  0  0  0  0  0  0  0
    4.7257   -0.0820    2.1462 C   0  0  0  0  0  0  0  0  0  0  0  0
    6.0486   -0.1716    2.6448 C   0  0  0  0  0  0  0  0  0  0  0  0
    6.5902    1.0505    2.9175 C   0  0  0  0  0  0  0  0  0  0  0  0
   -1.2793    1.4448   -1.4305 C   0  0  0  0  0  0  0  0  0  0  0  0
   -1.7962    2.3261   -0.2548 C   0  0  0  0  0  0  0  0  0  0  0  0
   -2.1604    1.0157    0.4781 C   0  0  0  0  0  0  0  0  0  0  0  0
   -3.6845   -2.2756   -2.0518 C   0  0  0  0  0  0  0  0  0  0  0  0
   -4.8396   -2.5515   -2.7401 C   0  0  0  0  0  0  0  0  0  0  0  0
   -1.8733   -1.0012   -1.0591 N   0  0  0  0  0  0  0  0  0  0  0  0
    2.1554    0.7618    1.0806 N   0  0  0  0  0  0  0  0  0  0  0  0
   -4.8437   -3.8890   -2.8975 N   0  0  0  0  0  0  0  0  0  0  0  0
   -3.7426   -4.4369   -2.3431 N   0  0  0  0  0  0  0  0  0  0  0  0
   -3.0405   -3.4592   -1.8294 N   0  0  0  0  0  0  0  0  0  0  0  0
    6.8857   -1.6669    2.8819 Cl  0  0  0  0  0  0  0  0  0  0  0  0
    5.4836    2.3173    2.5788 S   0  0  0  0  0  0  0  0  0  0  0  0
   -1.3651   -1.8391   -1.0587 H   0  0  0  0  0  0  0  0  0  0  0  0
    0.7121   -0.5816   -0.7202 H   0  0  0  0  0  0  0  0  0  0  0  0
    0.0113   -0.8367    0.8603 H   0  0  0  0  0  0  0  0  0  0  0  0
    0.2473    1.5398    1.3566 H   0  0  0  0  0  0  0  0  0  0  0  0
    0.9279    1.8090   -0.2303 H   0  0  0  0  0  0  0  0  0  0  0  0
    2.4517   -0.1713    1.0383 H   0  0  0  0  0  0  0  0  0  0  0  0
    4.1543   -0.9074    1.8744 H   0  0  0  0  0  0  0  0  0  0  0  0
    7.5524    1.1959    3.2843 H   0  0  0  0  0  0  0  0  0  0  0  0
   -0.3181    1.7332   -1.8016 H   0  0  0  0  0  0  0  0  0  0  0  0
   -1.9664    1.3597   -2.2463 H   0  0  0  0  0  0  0  0  0  0  0  0
   -2.6320    2.9484   -0.4977 H   0  0  0  0  0  0  0  0  0  0  0  0
   -1.0426    2.9125    0.2280 H   0  0  0  0  0  0  0  0  0  0  0  0
   -1.8408    0.9843    1.4987 H   0  0  0  0  0  0  0  0  0  0  0  0
   -3.1974    0.7583    0.4204 H   0  0  0  0  0  0  0  0  0  0  0  0
   -5.5567   -1.8739   -3.0691 H   0  0  0  0  0  0  0  0  0  0  0  0
   -5.5494   -4.3947   -3.3521 H   0  0  0  0  0  0  0  0  0  0  0  0
  3 17  1  0  0  0  0
  3 15  1  0  0  0  0
  3  1  2  0  0  0  0
  4 17  1  0  0  0  0
  4  5  1  0  0  0  0
  4 12  1  0  0  0  0
  4 14  1  0  0  0  0
  5  6  1  0  0  0  0
  5 25  1  0  0  0  0
  5 26  1  0  0  0  0
  6 18  1  0  0  0  0
  6 27  1  0  0  0  0
  6 28  1  0  0  0  0
  7 18  1  0  0  0  0
  7  8  1  0  0  0  0
  7  2  2  0  0  0  0
  8 23  1  0  0  0  0
  8  9  2  0  0  0  0
  9 10  1  0  0  0  0
  9 30  1  0  0  0  0
 10 22  1  0  0  0  0
 10 11  2  0  0  0  0
 11 23  1  0  0  0  0
 11 31  1  0  0  0  0
 12 13  1  0  0  0  0
 12 32  1  0  0  0  0
 12 33  1  0  0  0  0
 13 14  1  0  0  0  0
 13 34  1  0  0  0  0
 13 35  1  0  0  0  0
 14 36  1  0  0  0  0
 14 37  1  0  0  0  0
 15 21  1  0  0  0  0
 15 16  2  0  0  0  0
 16 19  1  0  0  0  0
 16 38  1  0  0  0  0
 17 24  1  0  0  0  0
 18 29  1  0  0  0  0
 19 20  1  0  0  0  0
 19 39  1  0  0  0  0
 20 21  2  0  0  0  0
M  END
>  <score>
0.44165343046188354

$$$$
PV-004075927910
 OpenBabel08202115463D

 51 52  0  0  0  0  0  0  0  0999 V2000
   -7.7766   -5.0957   -3.6256 C   0  0  0  0  0  0  0  0  0  0  0  0
   -6.2490   -3.3662   -3.0335 C   0  0  0  0  0  0  0  0  0  0  0  0
   -6.0216   -1.8664   -3.1290 C   0  0  0  0  0  0  0  0  0  0  0  0
   -4.7566   -1.3752   -2.5283 C   0  0  0  0  0  0  0  0  0  0  0  0
   -3.8030   -1.9089   -1.7450 C   0  0  0  0  0  0  0  0  0  0  0  0
   -2.8594   -0.8664   -1.5491 C   0  0  0  0  0  0  0  0  0  0  0  0
   -1.5869   -0.8633   -0.7639 C   0  0  0  0  0  0  0  0  0  0  0  0
    0.4115    0.3888   -0.1168 C   0  0  0  0  0  0  0  0  0  0  0  0
    1.0662    1.7299   -0.3564 C   0  0  1  0  0  0  0  0  0  0  0  0
    0.2235    2.8827    0.1644 C   0  0  0  0  0  0  0  0  0  0  0  0
    3.5342    1.7419   -0.6701 C   0  0  0  0  0  0  0  0  0  0  0  0
    2.5499    1.8046    1.5711 C   0  0  0  0  0  0  0  0  0  0  0  0
    3.9716    1.7991    2.0657 C   0  0  0  0  0  0  0  0  0  0  0  0
    4.0831    1.5157    3.5580 C   0  0  0  0  0  0  0  0  0  0  0  0
    5.5103    1.3350    3.9574 C   0  0  0  0  0  0  0  0  0  0  0  0
    6.4030    2.3049    4.3472 C   0  0  0  0  0  0  0  0  0  0  0  0
    7.5974    1.6213    4.6122 C   0  0  0  0  0  0  0  0  0  0  0  0
   -7.4714   -3.7067   -3.6741 O   0  0  0  0  0  0  0  0  0  0  0  0
   -1.2412   -1.8494   -0.1268 O   0  0  0  0  0  0  0  0  0  0  0  0
    1.6034    1.8470    2.3526 O   0  0  0  0  0  0  0  0  0  0  0  0
   -4.4452   -0.0850   -2.8081 O   0  0  0  0  0  0  0  0  0  0  0  0
   -0.8662    0.2611   -0.8015 N   0  0  0  0  0  0  0  0  0  0  0  0
    2.3959    1.7607    0.2383 N   0  0  0  0  0  0  0  0  0  0  0  0
    7.4607    0.3098    4.3955 N   0  0  0  0  0  0  0  0  0  0  0  0
    6.1712    0.1538    4.0005 N   0  0  0  0  0  0  0  0  0  0  0  0
   -3.2208    0.2281   -2.1788 N   0  0  0  0  0  0  0  0  0  0  0  0
   -8.6479   -5.2907   -4.2152 H   0  0  0  0  0  0  0  0  0  0  0  0
   -7.9599   -5.3851   -2.6120 H   0  0  0  0  0  0  0  0  0  0  0  0
   -6.9513   -5.6557   -4.0133 H   0  0  0  0  0  0  0  0  0  0  0  0
   -5.4414   -3.8795   -3.5123 H   0  0  0  0  0  0  0  0  0  0  0  0
   -6.2948   -3.6541   -2.0040 H   0  0  0  0  0  0  0  0  0  0  0  0
   -6.8340   -1.3771   -2.6335 H   0  0  0  0  0  0  0  0  0  0  0  0
   -6.0212   -1.5979   -4.1648 H   0  0  0  0  0  0  0  0  0  0  0  0
   -3.7649   -2.8761   -1.3648 H   0  0  0  0  0  0  0  0  0  0  0  0
   -1.2101    1.0265   -1.3078 H   0  0  0  0  0  0  0  0  0  0  0  0
    1.0671   -0.3805   -0.4681 H   0  0  0  0  0  0  0  0  0  0  0  0
    0.2508    0.2686    0.9342 H   0  0  0  0  0  0  0  0  0  0  0  0
    1.1706    1.8570   -1.4137 H   0  0  0  0  0  0  0  0  0  0  0  0
   -0.7175    2.8958   -0.3448 H   0  0  0  0  0  0  0  0  0  0  0  0
    0.7358    3.8058   -0.0097 H   0  0  0  0  0  0  0  0  0  0  0  0
    0.0589    2.7580    1.2143 H   0  0  0  0  0  0  0  0  0  0  0  0
    3.2021    2.5595   -1.2751 H   0  0  0  0  0  0  0  0  0  0  0  0
    3.6119    0.8260   -1.2179 H   0  0  0  0  0  0  0  0  0  0  0  0
    4.4619    1.9422   -0.1760 H   0  0  0  0  0  0  0  0  0  0  0  0
    4.4048    2.7572    1.8678 H   0  0  0  0  0  0  0  0  0  0  0  0
    4.5141    1.0452    1.5344 H   0  0  0  0  0  0  0  0  0  0  0  0
    3.5390    0.6232    3.7872 H   0  0  0  0  0  0  0  0  0  0  0  0
    3.6675    2.3373    4.1032 H   0  0  0  0  0  0  0  0  0  0  0  0
    6.2293    3.3271    4.4281 H   0  0  0  0  0  0  0  0  0  0  0  0
    8.4755    2.0754    4.9354 H   0  0  0  0  0  0  0  0  0  0  0  0
    5.7672   -0.7098    3.7738 H   0  0  0  0  0  0  0  0  0  0  0  0
  1 18  1  0  0  0  0
  1 27  1  0  0  0  0
  1 28  1  0  0  0  0
  1 29  1  0  0  0  0
  2 18  1  0  0  0  0
  2  3  1  0  0  0  0
  2 30  1  0  0  0  0
  2 31  1  0  0  0  0
  3  4  1  0  0  0  0
  3 32  1  0  0  0  0
  3 33  1  0  0  0  0
  4 21  1  0  0  0  0
  4  5  2  0  0  0  0
  5  6  1  0  0  0  0
  5 34  1  0  0  0  0
  6  7  1  0  0  0  0
  6 26  2  0  0  0  0
  7 22  1  0  0  0  0
  7 19  2  0  0  0  0
  8 22  1  0  0  0  0
  8  9  1  0  0  0  0
  8 36  1  0  0  0  0
  8 37  1  0  0  0  0
  9 10  1  0  0  0  0
  9 23  1  0  0  0  0
  9 38  1  6  0  0  0
 10 39  1  0  0  0  0
 10 40  1  0  0  0  0
 10 41  1  0  0  0  0
 11 23  1  0  0  0  0
 11 42  1  0  0  0  0
 11 43  1  0  0  0  0
 11 44  1  0  0  0  0
 12 23  1  0  0  0  0
 12 13  1  0  0  0  0
 12 20  2  0  0  0  0
 13 14  1  0  0  0  0
 13 45  1  0  0  0  0
 13 46  1  0  0  0  0
 14 15  1  0  0  0  0
 14 47  1  0  0  0  0
 14 48  1  0  0  0  0
 15 25  1  0  0  0  0
 15 16  2  0  0  0  0
 16 17  1  0  0  0  0
 16 49  1  0  0  0  0
 17 50  1  0  0  0  0
 17 24  2  0  0  0  0
 22 35  1  0  0  0  0
 24 25  1  0  0  0  0
 25 51  1  0  0  0  0
 26 21  1  0  0  0  0
M  END
>  <score>
0.44176590442657471

$$$$
PV-003388313595
 OpenBabel08202115463D

 56 58  0  0  0  0  0  0  0  0999 V2000
   -7.6793   -3.0480   -3.5686 C   0  0  0  0  0  0  0  0  0  0  0  0
   -6.5569   -2.2472   -2.9519 C   0  0  0  0  0  0  0  0  0  0  0  0
   -6.4157   -0.8882   -3.1607 C   0  0  0  0  0  0  0  0  0  0  0  0
   -5.3693   -0.2008   -2.5656 C   0  0  0  0  0  0  0  0  0  0  0  0
   -4.4643   -0.8751   -1.7679 C   0  0  0  0  0  0  0  0  0  0  0  0
   -3.3823   -0.1016   -1.0521 C   0  0  0  0  0  0  0  0  0  0  0  0
   -2.0208   -0.2292   -1.7158 C   0  0  1  0  0  0  0  0  0  0  0  0
   -2.1370   -0.0020   -3.2142 C   0  0  0  0  0  0  0  0  0  0  0  0
   -1.0068    0.7077   -1.0846 C   0  0  0  0  0  0  0  0  0  0  0  0
    1.3296    0.8815   -0.3540 C   0  0  0  0  0  0  0  0  0  0  0  0
    1.5389    0.8227    1.1550 C   0  0  0  0  0  0  0  0  0  0  0  0
    3.9104    1.3872    1.3484 C   0  0  0  0  0  0  0  0  0  0  0  0
    4.9272    2.3673    1.8996 C   0  0  2  0  0  0  0  0  0  0  0  0
    6.0271    1.6966    2.7293 C   0  0  0  0  0  0  0  0  0  0  0  0
    5.5045    0.8639    3.9159 C   0  0  0  0  0  0  0  0  0  0  0  0
    6.0107   -0.3632    3.2554 C   0  0  0  0  0  0  0  0  0  0  0  0
    6.6012    0.4078    2.0973 C   0  0  0  0  0  0  0  0  0  0  0  0
    1.4352   -0.4669    1.9133 C   0  0  0  0  0  0  0  0  0  0  0  0
    0.4368    0.6232    2.1473 C   0  0  0  0  0  0  0  0  0  0  0  0
   -4.6061   -2.2381   -1.5586 C   0  0  0  0  0  0  0  0  0  0  0  0
   -5.6493   -2.9236   -2.1519 C   0  0  0  0  0  0  0  0  0  0  0  0
   -1.2646    1.8930   -0.8788 O   0  0  0  0  0  0  0  0  0  0  0  0
    4.2552    0.4241    0.6836 O   0  0  0  0  0  0  0  0  0  0  0  0
    4.3132    3.3773    2.7116 O   0  0  0  0  0  0  0  0  0  0  0  0
    0.1559    0.1199   -0.7886 N   0  0  0  0  0  0  0  0  0  0  0  0
    2.6333    1.6510    1.6389 N   0  0  0  0  0  0  0  0  0  0  0  0
   -8.3959   -3.2982   -2.8143 H   0  0  0  0  0  0  0  0  0  0  0  0
   -7.2837   -3.9456   -3.9960 H   0  0  0  0  0  0  0  0  0  0  0  0
   -8.1536   -2.4675   -4.3322 H   0  0  0  0  0  0  0  0  0  0  0  0
   -7.0944   -0.3815   -3.7642 H   0  0  0  0  0  0  0  0  0  0  0  0
   -5.2653    0.8225   -2.7194 H   0  0  0  0  0  0  0  0  0  0  0  0
   -3.3081   -0.4681   -0.0495 H   0  0  0  0  0  0  0  0  0  0  0  0
   -3.6573    0.9323   -1.0350 H   0  0  0  0  0  0  0  0  0  0  0  0
   -1.6774   -1.2311   -1.5641 H   0  0  0  0  0  0  0  0  0  0  0  0
   -3.1698    0.0214   -3.4929 H   0  0  0  0  0  0  0  0  0  0  0  0
   -1.6454   -0.7974   -3.7345 H   0  0  0  0  0  0  0  0  0  0  0  0
   -1.6776    0.9298   -3.4701 H   0  0  0  0  0  0  0  0  0  0  0  0
    0.2261   -0.8546   -0.8648 H   0  0  0  0  0  0  0  0  0  0  0  0
    1.2011    1.9038   -0.6427 H   0  0  0  0  0  0  0  0  0  0  0  0
    2.1964    0.4804   -0.8362 H   0  0  0  0  0  0  0  0  0  0  0  0
    2.4263    2.4293    2.1972 H   0  0  0  0  0  0  0  0  0  0  0  0
    5.4015    2.8422    1.0663 H   0  0  0  0  0  0  0  0  0  0  0  0
    4.8414    3.5191    3.5006 H   0  0  0  0  0  0  0  0  0  0  0  0
    6.7671    2.4224    2.9948 H   0  0  0  0  0  0  0  0  0  0  0  0
    5.9763    1.0863    4.8501 H   0  0  0  0  0  0  0  0  0  0  0  0
    4.4417    0.8908    4.0371 H   0  0  0  0  0  0  0  0  0  0  0  0
    5.2348   -1.0399    2.9639 H   0  0  0  0  0  0  0  0  0  0  0  0
    6.7423   -0.8867    3.8346 H   0  0  0  0  0  0  0  0  0  0  0  0
    7.6694    0.3780    2.0429 H   0  0  0  0  0  0  0  0  0  0  0  0
    6.1878    0.1597    1.1421 H   0  0  0  0  0  0  0  0  0  0  0  0
    2.1560   -0.7033    2.6680 H   0  0  0  0  0  0  0  0  0  0  0  0
    1.1406   -1.3627    1.4077 H   0  0  0  0  0  0  0  0  0  0  0  0
   -0.5717    0.5059    1.8096 H   0  0  0  0  0  0  0  0  0  0  0  0
    0.4437    1.1653    3.0699 H   0  0  0  0  0  0  0  0  0  0  0  0
   -3.9274   -2.7448   -0.9551 H   0  0  0  0  0  0  0  0  0  0  0  0
   -5.7533   -3.9469   -1.9980 H   0  0  0  0  0  0  0  0  0  0  0  0
  1  2  1  0  0  0  0
  1 27  1  0  0  0  0
  1 28  1  0  0  0  0
  1 29  1  0  0  0  0
  2 21  1  0  0  0  0
  2  3  2  0  0  0  0
  3  4  1  0  0  0  0
  3 30  1  0  0  0  0
  4 31  1  0  0  0  0
  4  5  2  0  0  0  0
  5  6  1  0  0  0  0
  5 20  1  0  0  0  0
  6  7  1  0  0  0  0
  6 32  1  0  0  0  0
  6 33  1  0  0  0  0
  7  8  1  0  0  0  0
  7  9  1  0  0  0  0
  7 34  1  1  0  0  0
  8 35  1  0  0  0  0
  8 36  1  0  0  0  0
  8 37  1  0  0  0  0
  9 25  1  0  0  0  0
  9 22  2  0  0  0  0
 10 25  1  0  0  0  0
 10 11  1  0  0  0  0
 10 39  1  0  0  0  0
 10 40  1  0  0  0  0
 11 26  1  0  0  0  0
 11 18  1  0  0  0  0
 11 19  1  0  0  0  0
 12 26  1  0  0  0  0
 12 13  1  0  0  0  0
 12 23  2  0  0  0  0
 13 24  1  0  0  0  0
 13 14  1  0  0  0  0
 13 42  1  6  0  0  0
 14 15  1  0  0  0  0
 14 17  1  0  0  0  0
 14 44  1  0  0  0  0
 15 16  1  0  0  0  0
 15 45  1  0  0  0  0
 15 46  1  0  0  0  0
 16 17  1  0  0  0  0
 16 47  1  0  0  0  0
 16 48  1  0  0  0  0
 17 49  1  0  0  0  0
 17 50  1  0  0  0  0
 18 19  1  0  0  0  0
 18 51  1  0  0  0  0
 18 52  1  0  0  0  0
 19 53  1  0  0  0  0
 19 54  1  0  0  0  0
 20 55  1  0  0  0  0
 20 21  2  0  0  0  0
 21 56  1  0  0  0  0
 24 43  1  0  0  0  0
 25 38  1  0  0  0  0
 26 41  1  0  0  0  0
M  END
>  <score>
0.44178271293640137

$$$$
Z4056192573
 OpenBabel08202115463D

 54 56  0  0  0  0  0  0  0  0999 V2000
    5.1871    4.3354    3.7470 C   0  0  0  0  0  0  0  0  0  0  0  0
    4.8486    2.9414    3.2140 C   0  0  0  0  0  0  0  0  0  0  0  0
    4.9560    1.9147    4.3558 C   0  0  0  0  0  0  0  0  0  0  0  0
    5.8367    2.5738    2.1197 C   0  0  0  0  0  0  0  0  0  0  0  0
    4.1638    1.3055    0.9488 C   0  0  0  0  0  0  0  0  0  0  0  0
    3.1232    1.6259    2.0114 C   0  0  2  0  0  0  0  0  0  0  0  0
    1.7607    1.7080    1.3623 C   0  0  0  0  0  0  0  0  0  0  0  0
    0.1285    0.2547    0.2231 C   0  0  0  0  0  0  0  0  0  0  0  0
   -0.1540   -1.0561   -0.4849 C   0  0  0  0  0  0  0  0  0  0  0  0
   -1.9835   -2.2112   -1.6387 C   0  0  0  0  0  0  0  0  0  0  0  0
   -3.3794   -2.2204   -2.1306 C   0  0  0  0  0  0  0  0  0  0  0  0
   -4.1768   -1.0523   -2.0657 C   0  0  0  0  0  0  0  0  0  0  0  0
   -5.4713   -1.0767   -2.6060 C   0  0  0  0  0  0  0  0  0  0  0  0
   -5.9994   -2.2418   -3.1258 C   0  0  0  0  0  0  0  0  0  0  0  0
   -7.3820   -2.4575   -3.7038 C   0  0  0  0  0  0  0  0  0  0  0  0
   -7.2216   -3.8809   -4.3357 C   0  0  0  0  0  0  0  0  0  0  0  0
   -6.0063   -4.5665   -3.7090 C   0  0  0  0  0  0  0  0  0  0  0  0
   -5.2345   -3.3928   -3.1414 C   0  0  0  0  0  0  0  0  0  0  0  0
   -3.9353   -3.3748   -2.6657 C   0  0  0  0  0  0  0  0  0  0  0  0
    3.4332    2.9449    2.6831 C   0  0  0  0  0  0  0  0  0  0  0  0
    5.5040    1.2824    1.5254 N   0  0  0  0  0  0  0  0  0  0  0  0
    1.3653    0.4505    0.7255 N   0  0  0  0  0  0  0  0  0  0  0  0
   -1.5030   -1.1136   -1.0476 N   0  0  0  0  0  0  0  0  0  0  0  0
   -0.7460    1.1128    0.3348 O   0  0  0  0  0  0  0  0  0  0  0  0
   -1.3162   -3.2369   -1.8007 O   0  0  0  0  0  0  0  0  0  0  0  0
    4.3563    4.9904    3.5869 H   0  0  0  0  0  0  0  0  0  0  0  0
    6.0447    4.7152    3.2322 H   0  0  0  0  0  0  0  0  0  0  0  0
    5.3969    4.2752    4.7945 H   0  0  0  0  0  0  0  0  0  0  0  0
    4.4310    1.0227    4.0845 H   0  0  0  0  0  0  0  0  0  0  0  0
    4.5259    2.3248    5.2455 H   0  0  0  0  0  0  0  0  0  0  0  0
    5.9858    1.6829    4.5309 H   0  0  0  0  0  0  0  0  0  0  0  0
    5.8116    3.3257    1.3589 H   0  0  0  0  0  0  0  0  0  0  0  0
    6.8198    2.5228    2.5391 H   0  0  0  0  0  0  0  0  0  0  0  0
    6.1531    1.0768    0.8206 H   0  0  0  0  0  0  0  0  0  0  0  0
    3.9481    0.3472    0.5246 H   0  0  0  0  0  0  0  0  0  0  0  0
    4.1244    2.0521    0.1833 H   0  0  0  0  0  0  0  0  0  0  0  0
    3.1221    0.8489    2.7471 H   0  0  0  0  0  0  0  0  0  0  0  0
    1.7809    2.4773    0.6188 H   0  0  0  0  0  0  0  0  0  0  0  0
    1.0381    1.9547    2.1119 H   0  0  0  0  0  0  0  0  0  0  0  0
    2.0218   -0.2743    0.6619 H   0  0  0  0  0  0  0  0  0  0  0  0
   -0.0417   -1.8556    0.2173 H   0  0  0  0  0  0  0  0  0  0  0  0
    0.5534   -1.1758   -1.2787 H   0  0  0  0  0  0  0  0  0  0  0  0
   -2.0741   -0.3194   -0.9889 H   0  0  0  0  0  0  0  0  0  0  0  0
   -3.8074   -0.1867   -1.6230 H   0  0  0  0  0  0  0  0  0  0  0  0
   -6.0404   -0.2062   -2.6151 H   0  0  0  0  0  0  0  0  0  0  0  0
   -8.1326   -2.4483   -2.9412 H   0  0  0  0  0  0  0  0  0  0  0  0
   -7.6171   -1.7226   -4.4451 H   0  0  0  0  0  0  0  0  0  0  0  0
   -7.0781   -3.7908   -5.3921 H   0  0  0  0  0  0  0  0  0  0  0  0
   -8.1001   -4.4606   -4.1427 H   0  0  0  0  0  0  0  0  0  0  0  0
   -5.4323   -5.0881   -4.4462 H   0  0  0  0  0  0  0  0  0  0  0  0
   -6.2999   -5.2472   -2.9375 H   0  0  0  0  0  0  0  0  0  0  0  0
   -3.3641   -4.2428   -2.7098 H   0  0  0  0  0  0  0  0  0  0  0  0
    2.7521    3.0967    3.4943 H   0  0  0  0  0  0  0  0  0  0  0  0
    3.3245    3.7373    1.9724 H   0  0  0  0  0  0  0  0  0  0  0  0
  1  2  1  0  0  0  0
  1 26  1  0  0  0  0
  1 27  1  0  0  0  0
  1 28  1  0  0  0  0
  2  3  1  0  0  0  0
  2  4  1  0  0  0  0
  2 20  1  0  0  0  0
  3 29  1  0  0  0  0
  3 30  1  0  0  0  0
  3 31  1  0  0  0  0
  4 21  1  0  0  0  0
  4 32  1  0  0  0  0
  4 33  1  0  0  0  0
  5 21  1  0  0  0  0
  5  6  1  0  0  0  0
  5 35  1  0  0  0  0
  5 36  1  0  0  0  0
  6  7  1  0  0  0  0
  6 20  1  0  0  0  0
  6 37  1  1  0  0  0
  7 22  1  0  0  0  0
  7 38  1  0  0  0  0
  7 39  1  0  0  0  0
  8 22  1  0  0  0  0
  8  9  1  0  0  0  0
  8 24  2  0  0  0  0
  9 23  1  0  0  0  0
  9 41  1  0  0  0  0
  9 42  1  0  0  0  0
 10 23  1  0  0  0  0
 10 11  1  0  0  0  0
 10 25  2  0  0  0  0
 11 19  1  0  0  0  0
 11 12  2  0  0  0  0
 12 13  1  0  0  0  0
 12 44  1  0  0  0  0
 13 45  1  0  0  0  0
 13 14  2  0  0  0  0
 14 15  1  0  0  0  0
 14 18  1  0  0  0  0
 15 16  1  0  0  0  0
 15 46  1  0  0  0  0
 15 47  1  0  0  0  0
 16 17  1  0  0  0  0
 16 48  1  0  0  0  0
 16 49  1  0  0  0  0
 17 18  1  0  0  0  0
 17 50  1  0  0  0  0
 17 51  1  0  0  0  0
 18 19  2  0  0  0  0
 19 52  1  0  0  0  0
 20 53  1  0  0  0  0
 20 54  1  0  0  0  0
 21 34  1  0  0  0  0
 22 40  1  0  0  0  0
 23 43  1  0  0  0  0
M  END
>  <score>
0.44186729192733765

$$$$
PV-003310332242
 OpenBabel08202115463D

 56 59  0  0  0  0  0  0  0  0999 V2000
   -2.2038   -2.4615   -0.1092 C   0  0  0  0  0  0  0  0  0  0  0  0
   -2.8481   -1.6535   -1.1825 C   0  0  0  0  0  0  0  0  0  0  0  0
   -2.5017   -0.4266   -1.6966 C   0  0  0  0  0  0  0  0  0  0  0  0
   -1.3965    0.4856   -1.3653 C   0  0  0  0  0  0  0  0  0  0  0  0
    0.4057    1.2089   -0.6301 C   0  0  0  0  0  0  0  0  0  0  0  0
    1.6916    1.2451    0.1419 C   0  0  0  0  0  0  0  0  0  0  0  0
    1.7772    2.3113    1.2065 C   0  0  0  0  0  0  0  0  0  0  0  0
    4.1667    2.2541    1.0338 C   0  0  0  0  0  0  0  0  0  0  0  0
    5.4678    2.1304    1.7869 C   0  0  1  0  0  0  0  0  0  0  0  0
    5.6223    3.3288    2.7091 C   0  0  0  0  0  0  0  0  0  0  0  0
    4.4146    0.9349    3.4772 C   0  0  2  0  0  0  0  0  0  0  0  0
    4.4455   -0.3489    4.2713 C   0  0  0  0  0  0  0  0  0  0  0  0
    3.0866    1.0364    2.7582 C   0  0  0  0  0  0  0  0  0  0  0  0
   -2.0211    2.5022   -2.7596 C   0  0  0  0  0  0  0  0  0  0  0  0
   -3.4609   -0.1558   -2.6819 C   0  0  0  0  0  0  0  0  0  0  0  0
   -4.7612   -3.2784   -1.7353 C   0  0  0  0  0  0  0  0  0  0  0  0
   -4.5385   -4.3038   -2.8778 C   0  0  0  0  0  0  0  0  0  0  0  0
   -6.0618   -4.4169   -3.0364 C   0  0  0  0  0  0  0  0  0  0  0  0
   -6.2178   -3.1271   -2.2155 C   0  0  0  0  0  0  0  0  0  0  0  0
   -0.3977    0.1316   -0.5777 N   0  0  0  0  0  0  0  0  0  0  0  0
    3.0467    2.2551    1.9624 N   0  0  0  0  0  0  0  0  0  0  0  0
   -0.0181    2.1994   -1.3930 N   0  0  0  0  0  0  0  0  0  0  0  0
   -1.1961    1.7052   -1.8581 N   0  0  0  0  0  0  0  0  0  0  0  0
   -4.3525   -1.1470   -2.7723 N   0  0  0  0  0  0  0  0  0  0  0  0
   -3.9553   -2.0592   -1.8486 N   0  0  0  0  0  0  0  0  0  0  0  0
    5.5019    0.9390    2.5648 O   0  0  0  0  0  0  0  0  0  0  0  0
   -1.5101   -1.8507    0.4300 H   0  0  0  0  0  0  0  0  0  0  0  0
   -1.6848   -3.2879   -0.5480 H   0  0  0  0  0  0  0  0  0  0  0  0
   -2.9537   -2.8260    0.5614 H   0  0  0  0  0  0  0  0  0  0  0  0
    2.4892    1.4074   -0.5527 H   0  0  0  0  0  0  0  0  0  0  0  0
    1.8188    0.2943    0.6160 H   0  0  0  0  0  0  0  0  0  0  0  0
    0.9646    2.1796    1.8902 H   0  0  0  0  0  0  0  0  0  0  0  0
    1.6985    3.2704    0.7388 H   0  0  0  0  0  0  0  0  0  0  0  0
    4.0676    1.4275    0.3616 H   0  0  0  0  0  0  0  0  0  0  0  0
    4.1657    3.1685    0.4781 H   0  0  0  0  0  0  0  0  0  0  0  0
    6.2761    2.1126    1.0860 H   0  0  0  0  0  0  0  0  0  0  0  0
    5.5139    4.2308    2.1439 H   0  0  0  0  0  0  0  0  0  0  0  0
    6.5911    3.3068    3.1629 H   0  0  0  0  0  0  0  0  0  0  0  0
    4.8707    3.2923    3.4698 H   0  0  0  0  0  0  0  0  0  0  0  0
    4.5149    1.7680    4.1411 H   0  0  0  0  0  0  0  0  0  0  0  0
    3.6748   -0.3286    5.0133 H   0  0  0  0  0  0  0  0  0  0  0  0
    5.3976   -0.4496    4.7491 H   0  0  0  0  0  0  0  0  0  0  0  0
    4.2860   -1.1783    3.6143 H   0  0  0  0  0  0  0  0  0  0  0  0
    2.2944    1.0560    3.4772 H   0  0  0  0  0  0  0  0  0  0  0  0
    2.9652    0.1891    2.1160 H   0  0  0  0  0  0  0  0  0  0  0  0
   -1.7216    2.3222   -3.7709 H   0  0  0  0  0  0  0  0  0  0  0  0
   -1.8984    3.5403   -2.5310 H   0  0  0  0  0  0  0  0  0  0  0  0
   -3.0484    2.2288   -2.6381 H   0  0  0  0  0  0  0  0  0  0  0  0
   -3.4767    0.7044   -3.2663 H   0  0  0  0  0  0  0  0  0  0  0  0
   -4.6594   -3.6837   -0.7503 H   0  0  0  0  0  0  0  0  0  0  0  0
   -4.0347   -3.9067   -3.7342 H   0  0  0  0  0  0  0  0  0  0  0  0
   -4.0593   -5.2095   -2.5696 H   0  0  0  0  0  0  0  0  0  0  0  0
   -6.4062   -4.3401   -4.0466 H   0  0  0  0  0  0  0  0  0  0  0  0
   -6.4889   -5.2845   -2.5785 H   0  0  0  0  0  0  0  0  0  0  0  0
   -6.9465   -3.1891   -1.4344 H   0  0  0  0  0  0  0  0  0  0  0  0
   -6.3978   -2.2514   -2.8033 H   0  0  0  0  0  0  0  0  0  0  0  0
  1  2  1  0  0  0  0
  1 27  1  0  0  0  0
  1 28  1  0  0  0  0
  1 29  1  0  0  0  0
  2 25  1  0  0  0  0
  2  3  2  0  0  0  0
  3  4  1  0  0  0  0
  3 15  1  0  0  0  0
  4 23  1  0  0  0  0
  4 20  2  0  0  0  0
  5 20  1  0  0  0  0
  5  6  1  0  0  0  0
  5 22  2  0  0  0  0
  6  7  1  0  0  0  0
  6 30  1  0  0  0  0
  6 31  1  0  0  0  0
  7 21  1  0  0  0  0
  7 32  1  0  0  0  0
  7 33  1  0  0  0  0
  8 21  1  0  0  0  0
  8  9  1  0  0  0  0
  8 34  1  0  0  0  0
  8 35  1  0  0  0  0
  9 10  1  0  0  0  0
  9 26  1  0  0  0  0
  9 36  1  6  0  0  0
 10 37  1  0  0  0  0
 10 38  1  0  0  0  0
 10 39  1  0  0  0  0
 11 26  1  0  0  0  0
 11 12  1  0  0  0  0
 11 13  1  0  0  0  0
 11 40  1  1  0  0  0
 12 41  1  0  0  0  0
 12 42  1  0  0  0  0
 12 43  1  0  0  0  0
 13 21  1  0  0  0  0
 13 44  1  0  0  0  0
 13 45  1  0  0  0  0
 14 23  1  0  0  0  0
 14 46  1  0  0  0  0
 14 47  1  0  0  0  0
 14 48  1  0  0  0  0
 15 49  1  0  0  0  0
 15 24  2  0  0  0  0
 16 25  1  0  0  0  0
 16 17  1  0  0  0  0
 16 19  1  0  0  0  0
 16 50  1  0  0  0  0
 17 18  1  0  0  0  0
 17 51  1  0  0  0  0
 17 52  1  0  0  0  0
 18 19  1  0  0  0  0
 18 53  1  0  0  0  0
 18 54  1  0  0  0  0
 19 55  1  0  0  0  0
 19 56  1  0  0  0  0
 22 23  1  0  0  0  0
 24 25  1  0  0  0  0
M  END
>  <score>
0.44192063808441162

$$$$
PV-003682537456
 OpenBabel08202115463D

 54 55  0  0  0  0  0  0  0  0999 V2000
   -8.5272   -4.0287   -4.3253 C   0  0  0  0  0  0  0  0  0  0  0  0
   -7.3462   -3.6475   -3.4947 C   0  0  0  0  0  0  0  0  0  0  0  0
   -6.4617   -1.6877   -2.4394 C   0  0  0  0  0  0  0  0  0  0  0  0
   -5.2127   -2.1589   -2.1112 C   0  0  0  0  0  0  0  0  0  0  0  0
   -4.5876   -1.1041   -1.4324 C   0  0  0  0  0  0  0  0  0  0  0  0
   -3.2126   -1.0819   -0.8624 C   0  0  0  0  0  0  0  0  0  0  0  0
   -1.4795    0.3295    0.1976 C   0  0  0  0  0  0  0  0  0  0  0  0
   -0.5503    0.8628   -0.8912 C   0  0  1  0  0  0  0  0  0  0  0  0
   -0.0290    2.2687   -0.9158 C   0  0  0  0  0  0  0  0  0  0  0  0
    0.8795    1.1382   -0.5463 C   0  0  1  0  0  0  0  0  0  0  0  0
    1.3930    0.9236    0.8682 C   0  0  0  0  0  0  0  0  0  0  0  0
    3.4755    0.8361    2.0375 C   0  0  0  0  0  0  0  0  0  0  0  0
    4.9321    0.9519    1.9558 C   0  0  0  0  0  0  0  0  0  0  0  0
    5.1774    2.0244    1.2644 C   0  0  0  0  0  0  0  0  0  0  0  0
    5.3413   -0.0499    1.2373 C   0  0  0  0  0  0  0  0  0  0  0  0
    5.2402    2.2291    3.9875 C   0  0  0  0  0  0  0  0  0  0  0  0
    7.0266    0.8161    3.1710 C   0  0  0  0  0  0  0  0  0  0  0  0
   -7.4682   -2.2522   -3.1776 O   0  0  0  0  0  0  0  0  0  0  0  0
   -2.4874   -2.0803   -0.9208 O   0  0  0  0  0  0  0  0  0  0  0  0
    2.9089    0.6541    3.1144 O   0  0  0  0  0  0  0  0  0  0  0  0
   -2.8217    0.0609   -0.2964 N   0  0  0  0  0  0  0  0  0  0  0  0
    2.8551    0.9348    0.9425 N   0  0  0  0  0  0  0  0  0  0  0  0
    5.5672    0.9847    3.2849 N   0  0  0  0  0  0  0  0  0  0  0  0
   -5.3968   -0.0450   -1.3373 N   0  0  0  0  0  0  0  0  0  0  0  0
   -6.5394   -0.4210   -1.9668 N   0  0  0  0  0  0  0  0  0  0  0  0
   -8.4763   -5.0710   -4.5616 H   0  0  0  0  0  0  0  0  0  0  0  0
   -8.5258   -3.4577   -5.2302 H   0  0  0  0  0  0  0  0  0  0  0  0
   -9.4258   -3.8305   -3.7793 H   0  0  0  0  0  0  0  0  0  0  0  0
   -6.4440   -3.8189   -4.0439 H   0  0  0  0  0  0  0  0  0  0  0  0
   -7.3318   -4.2259   -2.5946 H   0  0  0  0  0  0  0  0  0  0  0  0
   -4.8166   -3.0972   -2.3217 H   0  0  0  0  0  0  0  0  0  0  0  0
   -3.4886    0.7733   -0.2064 H   0  0  0  0  0  0  0  0  0  0  0  0
   -1.0682   -0.5794    0.5844 H   0  0  0  0  0  0  0  0  0  0  0  0
   -1.5414    1.0555    0.9813 H   0  0  0  0  0  0  0  0  0  0  0  0
   -0.7039    0.4242   -1.8550 H   0  0  0  0  0  0  0  0  0  0  0  0
   -0.3427    2.9687   -0.1699 H   0  0  0  0  0  0  0  0  0  0  0  0
    0.0997    2.7753   -1.8494 H   0  0  0  0  0  0  0  0  0  0  0  0
    1.5786    0.8656   -1.3091 H   0  0  0  0  0  0  0  0  0  0  0  0
    1.0390   -0.0222    1.2216 H   0  0  0  0  0  0  0  0  0  0  0  0
    1.0120    1.7039    1.4933 H   0  0  0  0  0  0  0  0  0  0  0  0
    3.3702    1.0220    0.1133 H   0  0  0  0  0  0  0  0  0  0  0  0
    4.6349    2.8483    1.6788 H   0  0  0  0  0  0  0  0  0  0  0  0
    4.8736    1.8717    0.2499 H   0  0  0  0  0  0  0  0  0  0  0  0
    6.2258    2.2363    1.2953 H   0  0  0  0  0  0  0  0  0  0  0  0
    4.7801   -0.0895    0.3271 H   0  0  0  0  0  0  0  0  0  0  0  0
    5.2012   -0.9601    1.7822 H   0  0  0  0  0  0  0  0  0  0  0  0
    6.3796    0.0746    1.0107 H   0  0  0  0  0  0  0  0  0  0  0  0
    5.9837    2.9675    3.7710 H   0  0  0  0  0  0  0  0  0  0  0  0
    5.2148    2.0472    5.0416 H   0  0  0  0  0  0  0  0  0  0  0  0
    4.2833    2.5809    3.6626 H   0  0  0  0  0  0  0  0  0  0  0  0
    7.4723    0.8972    4.1404 H   0  0  0  0  0  0  0  0  0  0  0  0
    7.4243    1.5759    2.5312 H   0  0  0  0  0  0  0  0  0  0  0  0
    7.2430   -0.1473    2.7587 H   0  0  0  0  0  0  0  0  0  0  0  0
   -7.3259    0.1550   -2.0672 H   0  0  0  0  0  0  0  0  0  0  0  0
  1  2  1  0  0  0  0
  1 26  1  0  0  0  0
  1 27  1  0  0  0  0
  1 28  1  0  0  0  0
  2 18  1  0  0  0  0
  2 29  1  0  0  0  0
  2 30  1  0  0  0  0
  3 18  1  0  0  0  0
  3 25  1  0  0  0  0
  3  4  2  0  0  0  0
  4  5  1  0  0  0  0
  4 31  1  0  0  0  0
  5  6  1  0  0  0  0
  5 24  2  0  0  0  0
  6 21  1  0  0  0  0
  6 19  2  0  0  0  0
  7 21  1  0  0  0  0
  7  8  1  0  0  0  0
  7 33  1  0  0  0  0
  7 34  1  0  0  0  0
  8  9  1  0  0  0  0
  8 10  1  0  0  0  0
  8 35  1  6  0  0  0
  9 10  1  0  0  0  0
  9 36  1  0  0  0  0
  9 37  1  0  0  0  0
 10 11  1  0  0  0  0
 10 38  1  6  0  0  0
 11 22  1  0  0  0  0
 11 39  1  0  0  0  0
 11 40  1  0  0  0  0
 12 22  1  0  0  0  0
 12 13  1  0  0  0  0
 12 20  2  0  0  0  0
 13 14  1  0  0  0  0
 13 15  1  0  0  0  0
 13 23  1  0  0  0  0
 14 42  1  0  0  0  0
 14 43  1  0  0  0  0
 14 44  1  0  0  0  0
 15 45  1  0  0  0  0
 15 46  1  0  0  0  0
 15 47  1  0  0  0  0
 16 23  1  0  0  0  0
 16 48  1  0  0  0  0
 16 49  1  0  0  0  0
 16 50  1  0  0  0  0
 17 23  1  0  0  0  0
 17 51  1  0  0  0  0
 17 52  1  0  0  0  0
 17 53  1  0  0  0  0
 21 32  1  0  0  0  0
 22 41  1  0  0  0  0
 24 25  1  0  0  0  0
 25 54  1  0  0  0  0
M  END
>  <score>
0.44207137823104858

$$$$
PV-003990790827
 OpenBabel08202115463D

 53 55  0  0  0  0  0  0  0  0999 V2000
   -7.1046   -4.8267   -4.0849 C   0  0  0  0  0  0  0  0  0  0  0  0
   -6.0372   -3.1125   -2.6505 C   0  0  0  0  0  0  0  0  0  0  0  0
   -5.1467   -2.9778   -3.7043 C   0  0  0  0  0  0  0  0  0  0  0  0
   -4.1264   -2.0482   -3.6325 C   0  0  0  0  0  0  0  0  0  0  0  0
   -3.9968   -1.2469   -2.5088 C   0  0  0  0  0  0  0  0  0  0  0  0
   -2.9049   -0.2190   -2.3916 C   0  0  0  0  0  0  0  0  0  0  0  0
   -1.8846    1.3759   -0.7993 C   0  0  0  0  0  0  0  0  0  0  0  0
   -0.6988    0.9159    0.0330 C   0  0  1  0  0  0  0  0  0  0  0  0
    0.0114   -0.2759   -0.6216 C   0  0  0  0  0  0  0  0  0  0  0  0
    0.2570    2.0587    0.2963 C   0  0  0  0  0  0  0  0  0  0  0  0
    2.4633    2.1804    1.3280 C   0  0  0  0  0  0  0  0  0  0  0  0
    3.3281    1.6952    2.4843 C   0  0  1  0  0  0  0  0  0  0  0  0
    3.8886    0.2803    2.1947 C   0  0  0  0  0  0  0  0  0  0  0  0
    5.1442    0.2155    3.1011 C   0  0  0  0  0  0  0  0  0  0  0  0
    5.7320    1.6357    3.0274 C   0  0  0  0  0  0  0  0  0  0  0  0
    7.1512    1.8680    2.5178 C   0  0  0  0  0  0  0  0  0  0  0  0
    6.8215    2.0819    3.9975 C   0  0  0  0  0  0  0  0  0  0  0  0
    4.5857    2.5779    2.6351 C   0  0  0  0  0  0  0  0  0  0  0  0
   -4.8845   -1.3811   -1.4581 C   0  0  0  0  0  0  0  0  0  0  0  0
   -5.9078   -2.3134   -1.5302 C   0  0  0  0  0  0  0  0  0  0  0  0
   -6.9999   -4.0676   -2.8336 O   0  0  0  0  0  0  0  0  0  0  0  0
   -2.2599    0.1416   -3.3671 O   0  0  0  0  0  0  0  0  0  0  0  0
    2.9032    2.9450    0.4704 O   0  0  0  0  0  0  0  0  0  0  0  0
   -2.7232    0.2401   -1.1524 N   0  0  0  0  0  0  0  0  0  0  0  0
    1.2051    1.6939    1.3505 N   0  0  0  0  0  0  0  0  0  0  0  0
   -6.7973   -2.4732   -0.5316 F   0  0  0  0  0  0  0  0  0  0  0  0
   -6.1789   -5.3277   -4.2772 H   0  0  0  0  0  0  0  0  0  0  0  0
   -7.3218   -4.1572   -4.8908 H   0  0  0  0  0  0  0  0  0  0  0  0
   -7.8896   -5.5488   -3.9990 H   0  0  0  0  0  0  0  0  0  0  0  0
   -5.2464   -3.5762   -4.5490 H   0  0  0  0  0  0  0  0  0  0  0  0
   -3.4559   -1.9500   -4.4214 H   0  0  0  0  0  0  0  0  0  0  0  0
   -3.1895   -0.2223   -0.4250 H   0  0  0  0  0  0  0  0  0  0  0  0
   -2.4611    2.0784   -0.2346 H   0  0  0  0  0  0  0  0  0  0  0  0
   -1.5282    1.8431   -1.6935 H   0  0  0  0  0  0  0  0  0  0  0  0
   -1.0752    0.5856    0.9786 H   0  0  0  0  0  0  0  0  0  0  0  0
    1.0271   -0.3140   -0.2874 H   0  0  0  0  0  0  0  0  0  0  0  0
   -0.0098   -0.1629   -1.6854 H   0  0  0  0  0  0  0  0  0  0  0  0
   -0.4879   -1.1821   -0.3487 H   0  0  0  0  0  0  0  0  0  0  0  0
   -0.2986    2.9200    0.6036 H   0  0  0  0  0  0  0  0  0  0  0  0
    0.7954    2.2824   -0.6009 H   0  0  0  0  0  0  0  0  0  0  0  0
    0.9252    1.0951    2.0740 H   0  0  0  0  0  0  0  0  0  0  0  0
    2.7525    1.6977    3.3864 H   0  0  0  0  0  0  0  0  0  0  0  0
    3.1810   -0.4765    2.4620 H   0  0  0  0  0  0  0  0  0  0  0  0
    4.1524    0.1742    1.1631 H   0  0  0  0  0  0  0  0  0  0  0  0
    5.8434   -0.5048    2.7308 H   0  0  0  0  0  0  0  0  0  0  0  0
    4.8746   -0.0325    4.1064 H   0  0  0  0  0  0  0  0  0  0  0  0
    7.7552    1.0369    2.2189 H   0  0  0  0  0  0  0  0  0  0  0  0
    7.3635    2.7080    1.8900 H   0  0  0  0  0  0  0  0  0  0  0  0
    6.8035    3.0715    4.4040 H   0  0  0  0  0  0  0  0  0  0  0  0
    7.1951    1.4004    4.7329 H   0  0  0  0  0  0  0  0  0  0  0  0
    4.4328    3.3123    3.3982 H   0  0  0  0  0  0  0  0  0  0  0  0
    4.8083    3.0658    1.7093 H   0  0  0  0  0  0  0  0  0  0  0  0
   -4.7848   -0.7826   -0.6134 H   0  0  0  0  0  0  0  0  0  0  0  0
  1 21  1  0  0  0  0
  1 27  1  0  0  0  0
  1 28  1  0  0  0  0
  1 29  1  0  0  0  0
  2 21  1  0  0  0  0
  2 20  1  0  0  0  0
  2  3  2  0  0  0  0
  3  4  1  0  0  0  0
  3 30  1  0  0  0  0
  4 31  1  0  0  0  0
  4  5  2  0  0  0  0
  5  6  1  0  0  0  0
  5 19  1  0  0  0  0
  6 24  1  0  0  0  0
  6 22  2  0  0  0  0
  7 24  1  0  0  0  0
  7  8  1  0  0  0  0
  7 33  1  0  0  0  0
  7 34  1  0  0  0  0
  8  9  1  0  0  0  0
  8 10  1  0  0  0  0
  8 35  1  1  0  0  0
  9 36  1  0  0  0  0
  9 37  1  0  0  0  0
  9 38  1  0  0  0  0
 10 25  1  0  0  0  0
 10 39  1  0  0  0  0
 10 40  1  0  0  0  0
 11 25  1  0  0  0  0
 11 12  1  0  0  0  0
 11 23  2  0  0  0  0
 12 13  1  0  0  0  0
 12 18  1  0  0  0  0
 12 42  1  1  0  0  0
 13 14  1  0  0  0  0
 13 43  1  0  0  0  0
 13 44  1  0  0  0  0
 14 15  1  0  0  0  0
 14 45  1  0  0  0  0
 14 46  1  0  0  0  0
 15 16  1  0  0  0  0
 15 17  1  0  0  0  0
 15 18  1  0  0  0  0
 16 17  1  0  0  0  0
 16 47  1  0  0  0  0
 16 48  1  0  0  0  0
 17 49  1  0  0  0  0
 17 50  1  0  0  0  0
 18 51  1  0  0  0  0
 18 52  1  0  0  0  0
 19 53  1  0  0  0  0
 19 20  2  0  0  0  0
 20 26  1  0  0  0  0
 24 32  1  0  0  0  0
 25 41  1  0  0  0  0
M  END
>  <score>
0.44212633371353149

$$$$
Z3482083819
 OpenBabel08202115463D

 52 55  0  0  0  0  0  0  0  0999 V2000
    1.4951    3.6538    0.5835 C   0  0  0  0  0  0  0  0  0  0  0  0
    0.7638    1.2746    0.3293 C   0  0  0  0  0  0  0  0  0  0  0  0
   -0.3115    1.6753   -0.4483 C   0  0  0  0  0  0  0  0  0  0  0  0
   -1.2484    0.7474   -0.8626 C   0  0  0  0  0  0  0  0  0  0  0  0
   -1.1098   -0.5847   -0.5051 C   0  0  0  0  0  0  0  0  0  0  0  0
   -3.0751   -1.3495   -1.8232 C   0  0  0  0  0  0  0  0  0  0  0  0
   -4.0179   -2.4647   -2.0717 C   0  0  0  0  0  0  0  0  0  0  0  0
   -3.7201   -3.7284   -1.5759 C   0  0  0  0  0  0  0  0  0  0  0  0
   -5.6081   -4.6164   -2.4634 C   0  0  0  0  0  0  0  0  0  0  0  0
   -6.6270   -5.5356   -2.8088 C   0  0  0  0  0  0  0  0  0  0  0  0
   -7.5908   -4.8165   -3.4762 C   0  0  0  0  0  0  0  0  0  0  0  0
   -5.9825   -3.3592   -2.9680 C   0  0  0  0  0  0  0  0  0  0  0  0
   -5.1711   -2.2464   -2.7842 C   0  0  0  0  0  0  0  0  0  0  0  0
   -0.0377   -0.9841    0.2702 C   0  0  0  0  0  0  0  0  0  0  0  0
    0.9020   -0.0536    0.6858 C   0  0  0  0  0  0  0  0  0  0  0  0
    2.9729    1.8105    1.3939 C   0  0  1  0  0  0  0  0  0  0  0  0
    4.1169    2.2243    0.4935 C   0  0  0  0  0  0  0  0  0  0  0  0
    5.4472    1.7133    1.0540 C   0  0  0  0  0  0  0  0  0  0  0  0
    5.8359    2.3990    2.3305 C   0  0  0  0  0  0  0  0  0  0  0  0
    5.3215    1.8559    3.6243 C   0  0  0  0  0  0  0  0  0  0  0  0
    3.0129    2.3966    2.7669 C   0  0  0  0  0  0  0  0  0  0  0  0
    1.7197    2.2250    0.7579 N   0  0  0  0  0  0  0  0  0  0  0  0
   -2.0657   -1.5352   -0.9337 N   0  0  0  0  0  0  0  0  0  0  0  0
   -4.4666   -4.8197   -1.7444 N   0  0  0  0  0  0  0  0  0  0  0  0
   -7.2024   -3.4978   -3.5788 N   0  0  0  0  0  0  0  0  0  0  0  0
    3.8567    1.6043    3.7122 N   0  0  0  0  0  0  0  0  0  0  0  0
   -3.2070   -0.2730   -2.4147 O   0  0  0  0  0  0  0  0  0  0  0  0
    0.0560   -2.2867    0.5992 F   0  0  0  0  0  0  0  0  0  0  0  0
    0.9572    3.8224   -0.3259 H   0  0  0  0  0  0  0  0  0  0  0  0
    2.4369    4.1598    0.5396 H   0  0  0  0  0  0  0  0  0  0  0  0
    0.9264    4.0285    1.4088 H   0  0  0  0  0  0  0  0  0  0  0  0
   -0.4133    2.6740   -0.7200 H   0  0  0  0  0  0  0  0  0  0  0  0
   -2.0573    1.0486   -1.4427 H   0  0  0  0  0  0  0  0  0  0  0  0
   -1.9910   -2.4311   -0.5438 H   0  0  0  0  0  0  0  0  0  0  0  0
   -2.8420   -3.8310   -1.0281 H   0  0  0  0  0  0  0  0  0  0  0  0
   -6.6437   -6.5541   -2.5993 H   0  0  0  0  0  0  0  0  0  0  0  0
   -8.4794   -5.2087   -3.8478 H   0  0  0  0  0  0  0  0  0  0  0  0
   -7.7110   -2.7819   -4.0138 H   0  0  0  0  0  0  0  0  0  0  0  0
   -5.4207   -1.3099   -3.1615 H   0  0  0  0  0  0  0  0  0  0  0  0
    1.7110   -0.3549    1.2659 H   0  0  0  0  0  0  0  0  0  0  0  0
    2.9910    0.7447    1.4864 H   0  0  0  0  0  0  0  0  0  0  0  0
    3.9642    1.8130   -0.4824 H   0  0  0  0  0  0  0  0  0  0  0  0
    4.1477    3.2920    0.4304 H   0  0  0  0  0  0  0  0  0  0  0  0
    6.2134    1.8831    0.3267 H   0  0  0  0  0  0  0  0  0  0  0  0
    5.3593    0.6636    1.2419 H   0  0  0  0  0  0  0  0  0  0  0  0
    6.9044    2.3809    2.3845 H   0  0  0  0  0  0  0  0  0  0  0  0
    5.4991    3.4121    2.2585 H   0  0  0  0  0  0  0  0  0  0  0  0
    5.5762    2.5554    4.3929 H   0  0  0  0  0  0  0  0  0  0  0  0
    5.8207    0.9273    3.8067 H   0  0  0  0  0  0  0  0  0  0  0  0
    3.5679    1.8152    4.6246 H   0  0  0  0  0  0  0  0  0  0  0  0
    3.4103    3.3881    2.7034 H   0  0  0  0  0  0  0  0  0  0  0  0
    2.0149    2.4357    3.1506 H   0  0  0  0  0  0  0  0  0  0  0  0
  1 22  1  0  0  0  0
  1 29  1  0  0  0  0
  1 30  1  0  0  0  0
  1 31  1  0  0  0  0
  2 22  1  0  0  0  0
  2 15  1  0  0  0  0
  2  3  2  0  0  0  0
  3  4  1  0  0  0  0
  3 32  1  0  0  0  0
  4 33  1  0  0  0  0
  4  5  2  0  0  0  0
  5 23  1  0  0  0  0
  5 14  1  0  0  0  0
  6 23  1  0  0  0  0
  6  7  1  0  0  0  0
  6 27  2  0  0  0  0
  7 13  1  0  0  0  0
  7  8  2  0  0  0  0
  8 24  1  0  0  0  0
  8 35  1  0  0  0  0
  9 10  1  0  0  0  0
  9 12  1  0  0  0  0
  9 24  2  0  0  0  0
 10 36  1  0  0  0  0
 10 11  2  0  0  0  0
 11 25  1  0  0  0  0
 11 37  1  0  0  0  0
 12 25  1  0  0  0  0
 12 13  2  0  0  0  0
 13 39  1  0  0  0  0
 14 28  1  0  0  0  0
 14 15  2  0  0  0  0
 15 40  1  0  0  0  0
 16 22  1  0  0  0  0
 16 17  1  0  0  0  0
 16 21  1  0  0  0  0
 16 41  1  1  0  0  0
 17 18  1  0  0  0  0
 17 42  1  0  0  0  0
 17 43  1  0  0  0  0
 18 19  1  0  0  0  0
 18 44  1  0  0  0  0
 18 45  1  0  0  0  0
 19 20  1  0  0  0  0
 19 46  1  0  0  0  0
 19 47  1  0  0  0  0
 20 26  1  0  0  0  0
 20 48  1  0  0  0  0
 20 49  1  0  0  0  0
 21 26  1  0  0  0  0
 21 51  1  0  0  0  0
 21 52  1  0  0  0  0
 23 34  1  0  0  0  0
 25 38  1  0  0  0  0
 26 50  1  0  0  0  0
M  END
>  <score>
0.44221252202987671

$$$$
Z4467915204
 OpenBabel08202115463D

 57 58  0  0  0  0  0  0  0  0999 V2000
   -2.9757   -4.2585   -2.7669 C   0  0  0  0  0  0  0  0  0  0  0  0
   -3.8233   -3.2339   -3.4923 C   0  0  2  0  0  0  0  0  0  0  0  0
   -6.1062   -3.7251   -3.2125 C   0  0  0  0  0  0  0  0  0  0  0  0
   -5.6696   -2.8637   -2.0169 C   0  0  0  0  0  0  0  0  0  0  0  0
   -4.3753   -2.2133   -2.5235 C   0  0  1  0  0  0  0  0  0  0  0  0
   -3.4208   -1.9749   -1.3973 C   0  0  0  0  0  0  0  0  0  0  0  0
   -1.9218   -0.0423   -1.5865 C   0  0  0  0  0  0  0  0  0  0  0  0
   -0.5324    0.4312   -1.9190 C   0  0  0  0  0  0  0  0  0  0  0  0
    0.0051    1.9148    0.3946 C   0  0  0  0  0  0  0  0  0  0  0  0
   -1.0653    0.9652    1.0185 C   0  0  0  0  0  0  0  0  0  0  0  0
   -0.1232    3.3366    1.0170 C   0  0  0  0  0  0  0  0  0  0  0  0
    1.3988    1.3322    0.5267 C   0  0  0  0  0  0  0  0  0  0  0  0
    3.2485    0.8623    2.1124 C   0  0  0  0  0  0  0  0  0  0  0  0
    4.3951    1.8149    1.7747 C   0  0  1  0  0  0  0  0  0  0  0  0
    4.2284    3.1335    2.4832 C   0  0  0  0  0  0  0  0  0  0  0  0
    5.6750    3.6318    2.6131 C   0  0  0  0  0  0  0  0  0  0  0  0
    5.7251    1.2899    2.3236 C   0  0  2  0  0  0  0  0  0  0  0  0
    5.4841    0.3210    3.4696 C   0  0  0  0  0  0  0  0  0  0  0  0
   -5.0087   -3.8598   -4.0709 O   0  0  0  0  0  0  0  0  0  0  0  0
   -2.7874    0.7406   -1.2042 O   0  0  0  0  0  0  0  0  0  0  0  0
    1.9746    0.8294   -0.4373 O   0  0  0  0  0  0  0  0  0  0  0  0
    6.4286    2.4631    2.7905 O   0  0  0  0  0  0  0  0  0  0  0  0
   -2.1397   -1.3520   -1.7351 N   0  0  0  0  0  0  0  0  0  0  0  0
    1.9474    1.4042    1.7497 N   0  0  0  0  0  0  0  0  0  0  0  0
   -0.3417    2.1441   -1.3886 S   0  0  0  0  0  0  0  0  0  0  0  0
   -2.6722   -5.0212   -3.4532 H   0  0  0  0  0  0  0  0  0  0  0  0
   -3.5466   -4.6976   -1.9757 H   0  0  0  0  0  0  0  0  0  0  0  0
   -2.1094   -3.7804   -2.3596 H   0  0  0  0  0  0  0  0  0  0  0  0
   -3.2375   -2.7581   -4.2508 H   0  0  0  0  0  0  0  0  0  0  0  0
   -6.9139   -3.2486   -3.7277 H   0  0  0  0  0  0  0  0  0  0  0  0
   -6.4200   -4.6891   -2.8703 H   0  0  0  0  0  0  0  0  0  0  0  0
   -6.4073   -2.1244   -1.7845 H   0  0  0  0  0  0  0  0  0  0  0  0
   -5.4851   -3.4680   -1.1533 H   0  0  0  0  0  0  0  0  0  0  0  0
   -4.5811   -1.2878   -3.0193 H   0  0  0  0  0  0  0  0  0  0  0  0
   -3.2106   -2.9219   -0.9460 H   0  0  0  0  0  0  0  0  0  0  0  0
   -3.9107   -1.3417   -0.6873 H   0  0  0  0  0  0  0  0  0  0  0  0
   -1.4169   -1.9154   -2.0823 H   0  0  0  0  0  0  0  0  0  0  0  0
   -0.3759    0.3650   -2.9754 H   0  0  0  0  0  0  0  0  0  0  0  0
    0.1842   -0.1812   -1.4127 H   0  0  0  0  0  0  0  0  0  0  0  0
   -0.9792   -0.0070    0.5801 H   0  0  0  0  0  0  0  0  0  0  0  0
   -2.0429    1.3566    0.8286 H   0  0  0  0  0  0  0  0  0  0  0  0
   -0.9075    0.8953    2.0745 H   0  0  0  0  0  0  0  0  0  0  0  0
   -1.1478    3.6444    0.9964 H   0  0  0  0  0  0  0  0  0  0  0  0
    0.4679    4.0273    0.4528 H   0  0  0  0  0  0  0  0  0  0  0  0
    0.2221    3.3149    2.0295 H   0  0  0  0  0  0  0  0  0  0  0  0
    1.4331    1.8556    2.4512 H   0  0  0  0  0  0  0  0  0  0  0  0
    3.3976   -0.0552    1.5824 H   0  0  0  0  0  0  0  0  0  0  0  0
    3.2593    0.6723    3.1653 H   0  0  0  0  0  0  0  0  0  0  0  0
    4.4449    1.9523    0.7147 H   0  0  0  0  0  0  0  0  0  0  0  0
    3.7784    3.0005    3.4448 H   0  0  0  0  0  0  0  0  0  0  0  0
    3.6376    3.8112    1.9030 H   0  0  0  0  0  0  0  0  0  0  0  0
    5.7779    4.2809    3.4575 H   0  0  0  0  0  0  0  0  0  0  0  0
    5.9792    4.1480    1.7266 H   0  0  0  0  0  0  0  0  0  0  0  0
    6.2824    0.7999    1.5527 H   0  0  0  0  0  0  0  0  0  0  0  0
    6.4097   -0.1356    3.7519 H   0  0  0  0  0  0  0  0  0  0  0  0
    4.7942   -0.4352    3.1579 H   0  0  0  0  0  0  0  0  0  0  0  0
    5.0788    0.8516    4.3057 H   0  0  0  0  0  0  0  0  0  0  0  0
  1  2  1  0  0  0  0
  1 26  1  0  0  0  0
  1 27  1  0  0  0  0
  1 28  1  0  0  0  0
  2 19  1  0  0  0  0
  2  5  1  0  0  0  0
  2 29  1  6  0  0  0
  3 19  1  0  0  0  0
  3  4  1  0  0  0  0
  3 30  1  0  0  0  0
  3 31  1  0  0  0  0
  4  5  1  0  0  0  0
  4 32  1  0  0  0  0
  4 33  1  0  0  0  0
  5  6  1  0  0  0  0
  5 34  1  6  0  0  0
  6 23  1  0  0  0  0
  6 35  1  0  0  0  0
  6 36  1  0  0  0  0
  7 23  1  0  0  0  0
  7  8  1  0  0  0  0
  7 20  2  0  0  0  0
  8 25  1  0  0  0  0
  8 38  1  0  0  0  0
  8 39  1  0  0  0  0
  9 25  1  0  0  0  0
  9 10  1  0  0  0  0
  9 11  1  0  0  0  0
  9 12  1  0  0  0  0
 10 40  1  0  0  0  0
 10 41  1  0  0  0  0
 10 42  1  0  0  0  0
 11 43  1  0  0  0  0
 11 44  1  0  0  0  0
 11 45  1  0  0  0  0
 12 24  1  0  0  0  0
 12 21  2  0  0  0  0
 13 24  1  0  0  0  0
 13 14  1  0  0  0  0
 13 47  1  0  0  0  0
 13 48  1  0  0  0  0
 14 15  1  0  0  0  0
 14 17  1  0  0  0  0
 14 49  1  6  0  0  0
 15 16  1  0  0  0  0
 15 50  1  0  0  0  0
 15 51  1  0  0  0  0
 16 22  1  0  0  0  0
 16 52  1  0  0  0  0
 16 53  1  0  0  0  0
 17 22  1  0  0  0  0
 17 18  1  0  0  0  0
 17 54  1  6  0  0  0
 18 55  1  0  0  0  0
 18 56  1  0  0  0  0
 18 57  1  0  0  0  0
 23 37  1  0  0  0  0
 24 46  1  0  0  0  0
M  END
>  <score>
0.4422377347946167

$$$$
PV-003530549750
 OpenBabel08202115463D

 49 52  0  0  0  0  0  0  0  0999 V2000
   -2.9142    0.9632   -1.9288 O   0  0  0  0  0  0  0  0  0  0  0  0
    1.8108    2.2811    0.3330 O   0  0  0  0  0  0  0  0  0  0  0  0
    3.3710    2.4893    3.0941 O   0  0  0  0  0  0  0  0  0  0  0  0
    4.9076   -0.6401    0.8229 O   0  0  0  0  0  0  0  0  0  0  0  0
   -2.7168   -0.1421   -1.4258 C   0  0  0  0  0  0  0  0  0  0  0  0
   -3.7586   -1.2255   -1.5092 C   0  0  0  0  0  0  0  0  0  0  0  0
   -4.8916   -0.7414   -2.3994 C   0  0  1  0  0  0  0  0  0  0  0  0
   -4.7802   -0.8628   -3.9144 C   0  0  0  0  0  0  0  0  0  0  0  0
   -5.7181   -1.7176   -3.1511 C   0  0  0  0  0  0  0  0  0  0  0  0
   -7.1560   -2.0545   -3.2591 C   0  0  0  0  0  0  0  0  0  0  0  0
   -6.0950   -3.1435   -3.0677 C   0  0  0  0  0  0  0  0  0  0  0  0
   -0.5067    0.5623   -0.6516 C   0  0  2  0  0  0  0  0  0  0  0  0
    0.8473   -0.0228   -0.1762 C   0  0  0  0  0  0  0  0  0  0  0  0
    0.9734    1.1557    0.8167 C   0  0  1  0  0  0  0  0  0  0  0  0
    1.4136    0.7606    2.2037 C   0  0  0  0  0  0  0  0  0  0  0  0
    3.7166    1.3963    2.6474 C   0  0  0  0  0  0  0  0  0  0  0  0
    5.1757    0.9849    2.6158 C   0  0  0  0  0  0  0  0  0  0  0  0
    5.4511   -0.4076    2.1189 C   0  0  0  0  0  0  0  0  0  0  0  0
    5.9673    1.4577    3.7985 C   0  0  0  0  0  0  0  0  0  0  0  0
    6.1523    2.1084    2.4635 C   0  0  0  0  0  0  0  0  0  0  0  0
   -0.5470    1.3781    0.6664 C   0  0  0  0  0  0  0  0  0  0  0  0
   -1.5741   -0.4171   -0.7904 N   0  0  0  0  0  0  0  0  0  0  0  0
    2.8421    0.4926    2.1588 N   0  0  0  0  0  0  0  0  0  0  0  0
   -4.1353   -1.4392   -0.5308 H   0  0  0  0  0  0  0  0  0  0  0  0
   -3.3255   -2.1105   -1.9265 H   0  0  0  0  0  0  0  0  0  0  0  0
   -5.3458    0.1227   -1.9613 H   0  0  0  0  0  0  0  0  0  0  0  0
   -3.9036   -1.2886   -4.3561 H   0  0  0  0  0  0  0  0  0  0  0  0
   -5.1553   -0.0837   -4.5447 H   0  0  0  0  0  0  0  0  0  0  0  0
   -7.8273   -1.8110   -2.4622 H   0  0  0  0  0  0  0  0  0  0  0  0
   -7.6632   -1.9558   -4.1961 H   0  0  0  0  0  0  0  0  0  0  0  0
   -5.8579   -3.8102   -3.8703 H   0  0  0  0  0  0  0  0  0  0  0  0
   -6.0220   -3.6653   -2.1364 H   0  0  0  0  0  0  0  0  0  0  0  0
   -1.4505   -1.3093   -0.4044 H   0  0  0  0  0  0  0  0  0  0  0  0
   -0.4479    1.1550   -1.5405 H   0  0  0  0  0  0  0  0  0  0  0  0
    0.7737   -0.9842    0.2878 H   0  0  0  0  0  0  0  0  0  0  0  0
    1.6062   -0.0472   -0.9301 H   0  0  0  0  0  0  0  0  0  0  0  0
    1.2720    2.8801   -0.1891 H   0  0  0  0  0  0  0  0  0  0  0  0
    0.8884   -0.1179    2.5155 H   0  0  0  0  0  0  0  0  0  0  0  0
    1.2146    1.5578    2.8892 H   0  0  0  0  0  0  0  0  0  0  0  0
    3.1703   -0.3463    1.7729 H   0  0  0  0  0  0  0  0  0  0  0  0
    5.0192   -1.1079    2.8029 H   0  0  0  0  0  0  0  0  0  0  0  0
    6.5102   -0.5546    2.0785 H   0  0  0  0  0  0  0  0  0  0  0  0
    5.5964   -0.9697    0.2411 H   0  0  0  0  0  0  0  0  0  0  0  0
    6.7416    0.8412    4.2051 H   0  0  0  0  0  0  0  0  0  0  0  0
    5.4811    1.9889    4.5899 H   0  0  0  0  0  0  0  0  0  0  0  0
    5.7990    3.1053    2.3013 H   0  0  0  0  0  0  0  0  0  0  0  0
    7.0594    1.9576    1.9165 H   0  0  0  0  0  0  0  0  0  0  0  0
   -0.8325    2.4019    0.5425 H   0  0  0  0  0  0  0  0  0  0  0  0
   -1.1361    0.9344    1.4416 H   0  0  0  0  0  0  0  0  0  0  0  0
  2 37  1  0  0  0  0
  4 43  1  0  0  0  0
  5  6  1  0  0  0  0
  5 22  1  0  0  0  0
  5  1  2  0  0  0  0
  6  7  1  0  0  0  0
  6 24  1  0  0  0  0
  6 25  1  0  0  0  0
  7  8  1  0  0  0  0
  7  9  1  0  0  0  0
  7 26  1  1  0  0  0
  8  9  1  0  0  0  0
  8 27  1  0  0  0  0
  8 28  1  0  0  0  0
  9 10  1  0  0  0  0
  9 11  1  0  0  0  0
 10 11  1  0  0  0  0
 10 29  1  0  0  0  0
 10 30  1  0  0  0  0
 11 31  1  0  0  0  0
 11 32  1  0  0  0  0
 12 22  1  0  0  0  0
 12 13  1  0  0  0  0
 12 21  1  0  0  0  0
 12 34  1  6  0  0  0
 13 14  1  0  0  0  0
 13 35  1  0  0  0  0
 13 36  1  0  0  0  0
 14  2  1  6  0  0  0
 14 15  1  0  0  0  0
 14 21  1  0  0  0  0
 15 23  1  0  0  0  0
 15 38  1  0  0  0  0
 15 39  1  0  0  0  0
 16 23  1  0  0  0  0
 16 17  1  0  0  0  0
 16  3  2  0  0  0  0
 17 18  1  0  0  0  0
 17 19  1  0  0  0  0
 17 20  1  0  0  0  0
 18  4  1  0  0  0  0
 18 41  1  0  0  0  0
 18 42  1  0  0  0  0
 19 20  1  0  0  0  0
 19 44  1  0  0  0  0
 19 45  1  0  0  0  0
 20 46  1  0  0  0  0
 20 47  1  0  0  0  0
 21 48  1  0  0  0  0
 21 49  1  0  0  0  0
 22 33  1  0  0  0  0
 23 40  1  0  0  0  0
M  END
>  <score>
0.44233053922653198

$$$$
PV-004047901384
 OpenBabel08202115463D

 48 50  0  0  0  0  0  0  0  0999 V2000
    5.8260   -0.0496    2.1427 O   0  0  0  0  0  0  0  0  0  0  0  0
    5.2648    2.5988    4.4388 O   0  0  0  0  0  0  0  0  0  0  0  0
   -1.9896    1.6585   -0.7949 O   0  0  0  0  0  0  0  0  0  0  0  0
    5.2812    0.8867    2.7258 C   0  0  0  0  0  0  0  0  0  0  0  0
    5.7630    1.3392    4.0732 C   0  0  0  0  0  0  0  0  0  0  0  0
    3.2785    2.3527    2.9333 C   0  0  0  0  0  0  0  0  0  0  0  0
    1.8896    1.7085    2.8626 C   0  0  0  0  0  0  0  0  0  0  0  0
    1.5076    1.5295    1.3897 C   0  0  0  0  0  0  0  0  0  0  0  0
    2.5623    0.8193    0.5350 C   0  0  0  0  0  0  0  0  0  0  0  0
    3.9114    1.5161    0.7433 C   0  0  0  0  0  0  0  0  0  0  0  0
    0.6802    2.6311    0.7298 C   0  0  0  0  0  0  0  0  0  0  0  0
    0.0361    1.2822    1.0585 C   0  0  1  0  0  0  0  0  0  0  0  0
   -1.3694    0.5967   -0.8363 C   0  0  0  0  0  0  0  0  0  0  0  0
   -1.7637   -0.5068   -1.8270 C   0  0  0  0  0  0  0  0  0  0  0  0
   -3.0599   -1.1596   -1.4653 C   0  0  0  0  0  0  0  0  0  0  0  0
   -4.1228   -1.1651   -2.2670 C   0  0  0  0  0  0  0  0  0  0  0  0
   -4.7473   -2.3283   -2.9397 C   0  0  0  0  0  0  0  0  0  0  0  0
   -4.1173   -3.5504   -2.7982 C   0  0  0  0  0  0  0  0  0  0  0  0
   -4.6528   -4.6796   -3.3979 C   0  0  0  0  0  0  0  0  0  0  0  0
   -5.8136   -4.5826   -4.1417 C   0  0  0  0  0  0  0  0  0  0  0  0
   -6.4454   -3.3569   -4.2835 C   0  0  0  0  0  0  0  0  0  0  0  0
   -5.9116   -2.2309   -3.6856 C   0  0  0  0  0  0  0  0  0  0  0  0
    4.2350    1.5367    2.1752 N   0  0  0  0  0  0  0  0  0  0  0  0
   -0.3245    0.3673   -0.0143 N   0  0  0  0  0  0  0  0  0  0  0  0
   -0.7580   -1.4375   -1.8164 F   0  0  0  0  0  0  0  0  0  0  0  0
   -1.7894    0.0041   -3.0872 F   0  0  0  0  0  0  0  0  0  0  0  0
    6.8317    1.3876    4.0545 H   0  0  0  0  0  0  0  0  0  0  0  0
    5.4507    0.6236    4.8049 H   0  0  0  0  0  0  0  0  0  0  0  0
    5.2294    3.1409    3.6472 H   0  0  0  0  0  0  0  0  0  0  0  0
    3.2373    3.3361    2.5136 H   0  0  0  0  0  0  0  0  0  0  0  0
    3.5920    2.4131    3.9546 H   0  0  0  0  0  0  0  0  0  0  0  0
    1.1743    2.3405    3.3461 H   0  0  0  0  0  0  0  0  0  0  0  0
    1.9096    0.7551    3.3480 H   0  0  0  0  0  0  0  0  0  0  0  0
    2.2851    0.8723   -0.4971 H   0  0  0  0  0  0  0  0  0  0  0  0
    2.6366   -0.2058    0.8327 H   0  0  0  0  0  0  0  0  0  0  0  0
    3.8551    2.5194    0.3759 H   0  0  0  0  0  0  0  0  0  0  0  0
    4.6734    0.9838    0.2132 H   0  0  0  0  0  0  0  0  0  0  0  0
    0.8651    2.9015   -0.2889 H   0  0  0  0  0  0  0  0  0  0  0  0
    0.4092    3.5033    1.2872 H   0  0  0  0  0  0  0  0  0  0  0  0
   -0.6849    1.2113    1.8458 H   0  0  0  0  0  0  0  0  0  0  0  0
    0.2103   -0.4436   -0.1441 H   0  0  0  0  0  0  0  0  0  0  0  0
   -3.1346   -1.6325   -0.5421 H   0  0  0  0  0  0  0  0  0  0  0  0
   -4.5683   -0.2418   -2.4423 H   0  0  0  0  0  0  0  0  0  0  0  0
   -3.2416   -3.6227   -2.2419 H   0  0  0  0  0  0  0  0  0  0  0  0
   -4.1810   -5.5999   -3.2881 H   0  0  0  0  0  0  0  0  0  0  0  0
   -6.2131   -5.4291   -4.5949 H   0  0  0  0  0  0  0  0  0  0  0  0
   -7.3211   -3.2846   -4.8398 H   0  0  0  0  0  0  0  0  0  0  0  0
   -6.3834   -1.3106   -3.7954 H   0  0  0  0  0  0  0  0  0  0  0  0
  2 29  1  0  0  0  0
  4  5  1  0  0  0  0
  4 23  1  0  0  0  0
  4  1  2  0  0  0  0
  5  2  1  0  0  0  0
  5 27  1  0  0  0  0
  5 28  1  0  0  0  0
  6 23  1  0  0  0  0
  6  7  1  0  0  0  0
  6 30  1  0  0  0  0
  6 31  1  0  0  0  0
  7  8  1  0  0  0  0
  7 32  1  0  0  0  0
  7 33  1  0  0  0  0
  8  9  1  0  0  0  0
  8 11  1  0  0  0  0
  8 12  1  0  0  0  0
  9 10  1  0  0  0  0
  9 34  1  0  0  0  0
  9 35  1  0  0  0  0
 10 23  1  0  0  0  0
 10 36  1  0  0  0  0
 10 37  1  0  0  0  0
 11 12  1  0  0  0  0
 11 38  1  0  0  0  0
 11 39  1  0  0  0  0
 12 24  1  0  0  0  0
 12 40  1  1  0  0  0
 13 24  1  0  0  0  0
 13 14  1  0  0  0  0
 13  3  2  0  0  0  0
 14 25  1  0  0  0  0
 14 26  1  0  0  0  0
 14 15  1  0  0  0  0
 15 42  1  0  0  0  0
 15 16  2  0  0  0  0
 16 17  1  0  0  0  0
 16 43  1  0  0  0  0
 17 22  1  0  0  0  0
 17 18  2  0  0  0  0
 18 19  1  0  0  0  0
 18 44  1  0  0  0  0
 19 45  1  0  0  0  0
 19 20  2  0  0  0  0
 20 21  1  0  0  0  0
 20 46  1  0  0  0  0
 21 47  1  0  0  0  0
 21 22  2  0  0  0  0
 22 48  1  0  0  0  0
 24 41  1  0  0  0  0
M  END
>  <score>
0.44233578443527222

$$$$
PV-003246004672
 OpenBabel08202115463D

 51 53  0  0  0  0  0  0  0  0999 V2000
    5.5281    0.1377    3.0475 C   0  0  0  0  0  0  0  0  0  0  0  0
    5.6967    1.5958    2.6156 C   0  0  0  0  0  0  0  0  0  0  0  0
    6.6516    1.6434    1.4177 C   0  0  0  0  0  0  0  0  0  0  0  0
    6.3182    2.3715    3.7802 C   0  0  0  0  0  0  0  0  0  0  0  0
    4.3799    2.2021    2.2264 C   0  0  0  0  0  0  0  0  0  0  0  0
    2.3716    2.5695    1.3907 C   0  0  0  0  0  0  0  0  0  0  0  0
    1.0361    2.5344    0.7192 C   0  0  0  0  0  0  0  0  0  0  0  0
   -0.5339    1.2431   -0.6402 C   0  0  0  0  0  0  0  0  0  0  0  0
   -0.6294   -0.0944   -1.3558 C   0  0  0  0  0  0  0  0  0  0  0  0
   -1.9874   -0.3417   -1.9923 C   0  0  2  0  0  0  0  0  0  0  0  0
   -3.1144   -0.6601   -0.9770 C   0  0  0  0  0  0  0  0  0  0  0  0
   -3.2801   -2.0936   -1.6020 C   0  0  2  0  0  0  0  0  0  0  0  0
   -5.5380   -3.0574   -1.6039 C   0  0  0  0  0  0  0  0  0  0  0  0
   -6.8189   -3.2090   -2.3374 C   0  0  0  0  0  0  0  0  0  0  0  0
   -7.9508   -3.8956   -1.9745 C   0  0  0  0  0  0  0  0  0  0  0  0
   -2.1530   -1.7751   -2.6173 C   0  0  0  0  0  0  0  0  0  0  0  0
    3.3538    1.6116    1.4763 C   0  0  0  0  0  0  0  0  0  0  0  0
    4.0561    3.4463    2.5910 N   0  0  0  0  0  0  0  0  0  0  0  0
    2.8228    3.6550    2.0630 N   0  0  0  0  0  0  0  0  0  0  0  0
    0.7458    1.4288    0.0275 N   0  0  0  0  0  0  0  0  0  0  0  0
   -4.5803   -2.3304   -2.2113 N   0  0  0  0  0  0  0  0  0  0  0  0
   -8.8122   -3.7166   -2.9941 N   0  0  0  0  0  0  0  0  0  0  0  0
   -8.2590   -2.9483   -3.9552 N   0  0  0  0  0  0  0  0  0  0  0  0
   -7.0504   -2.6416   -3.5579 N   0  0  0  0  0  0  0  0  0  0  0  0
    0.2660    3.4763    0.8103 O   0  0  0  0  0  0  0  0  0  0  0  0
   -5.3803   -3.5720   -0.5091 O   0  0  0  0  0  0  0  0  0  0  0  0
    5.1505   -0.4364    2.2272 H   0  0  0  0  0  0  0  0  0  0  0  0
    4.8404    0.0855    3.8655 H   0  0  0  0  0  0  0  0  0  0  0  0
    6.4755   -0.2558    3.3516 H   0  0  0  0  0  0  0  0  0  0  0  0
    7.5752    1.1701    1.6782 H   0  0  0  0  0  0  0  0  0  0  0  0
    6.8367    2.6627    1.1497 H   0  0  0  0  0  0  0  0  0  0  0  0
    6.2097    1.1308    0.5890 H   0  0  0  0  0  0  0  0  0  0  0  0
    5.6256    2.4082    4.5949 H   0  0  0  0  0  0  0  0  0  0  0  0
    6.5484    3.3670    3.4628 H   0  0  0  0  0  0  0  0  0  0  0  0
    7.2150    1.8811    4.0967 H   0  0  0  0  0  0  0  0  0  0  0  0
    2.3197    4.4907    2.1571 H   0  0  0  0  0  0  0  0  0  0  0  0
    1.4180    0.7182   -0.0323 H   0  0  0  0  0  0  0  0  0  0  0  0
   -0.6628    2.0260   -1.3581 H   0  0  0  0  0  0  0  0  0  0  0  0
   -1.3132    1.2972    0.0911 H   0  0  0  0  0  0  0  0  0  0  0  0
   -0.4403   -0.8729   -0.6465 H   0  0  0  0  0  0  0  0  0  0  0  0
    0.1153   -0.1223   -2.1237 H   0  0  0  0  0  0  0  0  0  0  0  0
   -2.2176    0.4580   -2.6648 H   0  0  0  0  0  0  0  0  0  0  0  0
   -2.7933   -0.6640    0.0436 H   0  0  0  0  0  0  0  0  0  0  0  0
   -3.9795   -0.0384   -1.0770 H   0  0  0  0  0  0  0  0  0  0  0  0
   -3.0499   -2.8934   -0.9294 H   0  0  0  0  0  0  0  0  0  0  0  0
   -4.7656   -1.9477   -3.0943 H   0  0  0  0  0  0  0  0  0  0  0  0
   -8.1089   -4.4371   -1.1008 H   0  0  0  0  0  0  0  0  0  0  0  0
   -9.7163   -4.0926   -3.0326 H   0  0  0  0  0  0  0  0  0  0  0  0
   -1.2879   -2.3968   -2.5174 H   0  0  0  0  0  0  0  0  0  0  0  0
   -2.4741   -1.7712   -3.6379 H   0  0  0  0  0  0  0  0  0  0  0  0
    3.3387    0.6539    1.0713 H   0  0  0  0  0  0  0  0  0  0  0  0
  1  2  1  0  0  0  0
  1 27  1  0  0  0  0
  1 28  1  0  0  0  0
  1 29  1  0  0  0  0
  2  3  1  0  0  0  0
  2  4  1  0  0  0  0
  2  5  1  0  0  0  0
  3 30  1  0  0  0  0
  3 31  1  0  0  0  0
  3 32  1  0  0  0  0
  4 33  1  0  0  0  0
  4 34  1  0  0  0  0
  4 35  1  0  0  0  0
  5 17  1  0  0  0  0
  5 18  2  0  0  0  0
  6 19  1  0  0  0  0
  6  7  1  0  0  0  0
  6 17  2  0  0  0  0
  7 20  1  0  0  0  0
  7 25  2  0  0  0  0
  8 20  1  0  0  0  0
  8  9  1  0  0  0  0
  8 38  1  0  0  0  0
  8 39  1  0  0  0  0
  9 10  1  0  0  0  0
  9 40  1  0  0  0  0
  9 41  1  0  0  0  0
 10 11  1  0  0  0  0
 10 16  1  0  0  0  0
 10 42  1  6  0  0  0
 11 12  1  0  0  0  0
 11 43  1  0  0  0  0
 11 44  1  0  0  0  0
 12 21  1  0  0  0  0
 12 16  1  0  0  0  0
 12 45  1  1  0  0  0
 13 21  1  0  0  0  0
 13 14  1  0  0  0  0
 13 26  2  0  0  0  0
 14 24  1  0  0  0  0
 14 15  2  0  0  0  0
 15 22  1  0  0  0  0
 15 47  1  0  0  0  0
 16 49  1  0  0  0  0
 16 50  1  0  0  0  0
 17 51  1  0  0  0  0
 18 19  1  0  0  0  0
 19 36  1  0  0  0  0
 20 37  1  0  0  0  0
 21 46  1  0  0  0  0
 22 23  1  0  0  0  0
 22 48  1  0  0  0  0
 23 24  2  0  0  0  0
M  END
>  <score>
0.44243663549423218

$$$$
PV-004017120500
 OpenBabel08202115463D

 56 58  0  0  0  0  0  0  0  0999 V2000
    6.3462    4.0281    3.8093 C   0  0  0  0  0  0  0  0  0  0  0  0
    5.5949    1.9229    2.9975 C   0  0  2  0  0  0  0  0  0  0  0  0
    5.9972    0.5702    2.3570 C   0  0  0  0  0  0  0  0  0  0  0  0
    5.0190    0.8976    1.1992 C   0  0  1  0  0  0  0  0  0  0  0  0
    3.6508    0.2493    1.3333 C   0  0  0  0  0  0  0  0  0  0  0  0
    2.5675    0.9846    0.5684 C   0  0  0  0  0  0  0  0  0  0  0  0
    0.1713    1.1574    0.1118 C   0  0  0  0  0  0  0  0  0  0  0  0
   -0.8556    0.1100   -0.3166 C   0  0  1  0  0  0  0  0  0  0  0  0
   -0.2081   -0.8682   -1.2992 C   0  0  0  0  0  0  0  0  0  0  0  0
   -1.3215   -0.6588    0.9132 C   0  0  0  0  0  0  0  0  0  0  0  0
   -2.4418   -1.6139    0.5457 C   0  0  0  0  0  0  0  0  0  0  0  0
   -3.5844   -0.8833   -0.1364 C   0  0  0  0  0  0  0  0  0  0  0  0
   -3.5663   -0.3467   -2.5449 C   0  0  0  0  0  0  0  0  0  0  0  0
   -4.3844   -1.5187   -2.7415 C   0  0  0  0  0  0  0  0  0  0  0  0
   -4.0900   -2.8104   -2.5282 C   0  0  0  0  0  0  0  0  0  0  0  0
   -5.2499   -3.5559   -2.8728 C   0  0  0  0  0  0  0  0  0  0  0  0
   -6.1666   -2.6631   -3.2819 C   0  0  0  0  0  0  0  0  0  0  0  0
   -7.5680   -2.7557   -3.7793 C   0  0  0  0  0  0  0  0  0  0  0  0
   -2.0171    0.8097   -1.0079 C   0  0  0  0  0  0  0  0  0  0  0  0
    5.0633    2.3823    1.6202 C   0  0  0  0  0  0  0  0  0  0  0  0
    6.6848    2.6844    3.4861 O   0  0  0  0  0  0  0  0  0  0  0  0
    2.8397    1.8944   -0.1975 O   0  0  0  0  0  0  0  0  0  0  0  0
   -3.3329    0.4217   -3.4760 O   0  0  0  0  0  0  0  0  0  0  0  0
   -5.6663   -1.3903   -3.2131 O   0  0  0  0  0  0  0  0  0  0  0  0
    1.3169    0.5707    0.7910 N   0  0  0  0  0  0  0  0  0  0  0  0
   -3.0855   -0.1524   -1.3046 N   0  0  0  0  0  0  0  0  0  0  0  0
    7.2197    4.4318    4.2772 H   0  0  0  0  0  0  0  0  0  0  0  0
    5.5142    4.0542    4.4817 H   0  0  0  0  0  0  0  0  0  0  0  0
    6.1067    4.5783    2.9233 H   0  0  0  0  0  0  0  0  0  0  0  0
    4.8445    1.8456    3.7563 H   0  0  0  0  0  0  0  0  0  0  0  0
    5.7323   -0.2915    2.9334 H   0  0  0  0  0  0  0  0  0  0  0  0
    7.0248    0.5034    2.0663 H   0  0  0  0  0  0  0  0  0  0  0  0
    5.4116    0.7045    0.2227 H   0  0  0  0  0  0  0  0  0  0  0  0
    3.3831    0.2300    2.3691 H   0  0  0  0  0  0  0  0  0  0  0  0
    3.7105   -0.7521    0.9611 H   0  0  0  0  0  0  0  0  0  0  0  0
    1.1657   -0.1532    1.4341 H   0  0  0  0  0  0  0  0  0  0  0  0
    0.5169    1.6748   -0.7587 H   0  0  0  0  0  0  0  0  0  0  0  0
   -0.3023    1.8507    0.7750 H   0  0  0  0  0  0  0  0  0  0  0  0
   -0.9427   -1.2124   -1.9968 H   0  0  0  0  0  0  0  0  0  0  0  0
    0.1907   -1.7025   -0.7608 H   0  0  0  0  0  0  0  0  0  0  0  0
    0.5805   -0.3737   -1.8269 H   0  0  0  0  0  0  0  0  0  0  0  0
   -1.6752    0.0332    1.6487 H   0  0  0  0  0  0  0  0  0  0  0  0
   -0.5001   -1.2160    1.3129 H   0  0  0  0  0  0  0  0  0  0  0  0
   -2.8083   -2.0809    1.4359 H   0  0  0  0  0  0  0  0  0  0  0  0
   -2.0597   -2.3610   -0.1182 H   0  0  0  0  0  0  0  0  0  0  0  0
   -4.0246   -0.1927    0.5522 H   0  0  0  0  0  0  0  0  0  0  0  0
   -4.3211   -1.5929   -0.4507 H   0  0  0  0  0  0  0  0  0  0  0  0
   -3.1880   -3.1920   -2.1785 H   0  0  0  0  0  0  0  0  0  0  0  0
   -5.3660   -4.5880   -2.8190 H   0  0  0  0  0  0  0  0  0  0  0  0
   -7.8155   -3.7807   -3.9613 H   0  0  0  0  0  0  0  0  0  0  0  0
   -7.6609   -2.1997   -4.6888 H   0  0  0  0  0  0  0  0  0  0  0  0
   -8.2342   -2.3532   -3.0450 H   0  0  0  0  0  0  0  0  0  0  0  0
   -1.6725    1.2475   -1.9214 H   0  0  0  0  0  0  0  0  0  0  0  0
   -2.3999    1.5759   -0.3667 H   0  0  0  0  0  0  0  0  0  0  0  0
    4.1081    2.8634    1.6512 H   0  0  0  0  0  0  0  0  0  0  0  0
    5.7476    2.9828    1.0582 H   0  0  0  0  0  0  0  0  0  0  0  0
  1 21  1  0  0  0  0
  1 27  1  0  0  0  0
  1 28  1  0  0  0  0
  1 29  1  0  0  0  0
  2 21  1  0  0  0  0
  2  3  1  0  0  0  0
  2 20  1  0  0  0  0
  2 30  1  1  0  0  0
  3  4  1  0  0  0  0
  3 31  1  0  0  0  0
  3 32  1  0  0  0  0
  4  5  1  0  0  0  0
  4 20  1  0  0  0  0
  4 33  1  6  0  0  0
  5  6  1  0  0  0  0
  5 34  1  0  0  0  0
  5 35  1  0  0  0  0
  6 25  1  0  0  0  0
  6 22  2  0  0  0  0
  7 25  1  0  0  0  0
  7 37  1  0  0  0  0
  7 38  1  0  0  0  0
  8  7  1  1  0  0  0
  8  9  1  0  0  0  0
  8 10  1  0  0  0  0
  8 19  1  0  0  0  0
  9 39  1  0  0  0  0
  9 40  1  0  0  0  0
  9 41  1  0  0  0  0
 10 11  1  0  0  0  0
 10 42  1  0  0  0  0
 10 43  1  0  0  0  0
 11 12  1  0  0  0  0
 11 44  1  0  0  0  0
 11 45  1  0  0  0  0
 12 26  1  0  0  0  0
 12 46  1  0  0  0  0
 12 47  1  0  0  0  0
 13 26  1  0  0  0  0
 13 14  1  0  0  0  0
 13 23  2  0  0  0  0
 14 24  1  0  0  0  0
 14 15  2  0  0  0  0
 15 16  1  0  0  0  0
 15 48  1  0  0  0  0
 16 49  1  0  0  0  0
 16 17  2  0  0  0  0
 17 18  1  0  0  0  0
 17 24  1  0  0  0  0
 18 50  1  0  0  0  0
 18 51  1  0  0  0  0
 18 52  1  0  0  0  0
 19 26  1  0  0  0  0
 19 53  1  0  0  0  0
 19 54  1  0  0  0  0
 20 55  1  0  0  0  0
 20 56  1  0  0  0  0
 25 36  1  0  0  0  0
M  END
>  <score>
0.44249790906906128

$$$$
PV-004087500053
 OpenBabel08202115463D

 47 50  0  0  0  0  0  0  0  0999 V2000
    6.9669    0.1474    2.1221 C   0  0  0  0  0  0  0  0  0  0  0  0
    6.1624    1.1473    2.9088 C   0  0  0  0  0  0  0  0  0  0  0  0
    4.9041    1.6332    2.6992 C   0  0  0  0  0  0  0  0  0  0  0  0
    4.0244    1.2161    1.5644 C   0  0  0  0  0  0  0  0  0  0  0  0
    1.7843    1.2778    0.5866 C   0  0  1  0  0  0  0  0  0  0  0  0
    1.1303   -0.0729    0.8594 C   0  0  0  0  0  0  0  0  0  0  0  0
   -0.3366    0.2605    1.0547 C   0  0  0  0  0  0  0  0  0  0  0  0
   -0.6414    1.2175   -1.1380 C   0  0  0  0  0  0  0  0  0  0  0  0
   -1.9114    0.5089   -1.5315 C   0  0  0  0  0  0  0  0  0  0  0  0
   -2.3194   -0.7413   -1.1381 C   0  0  0  0  0  0  0  0  0  0  0  0
   -4.3980   -2.0849   -1.7067 C   0  0  2  0  0  0  0  0  0  0  0  0
   -4.3330   -2.9954   -2.9872 C   0  0  0  0  0  0  0  0  0  0  0  0
   -5.8138   -2.6569   -3.2960 C   0  0  2  0  0  0  0  0  0  0  0  0
   -5.8786   -1.7465   -2.0155 C   0  0  0  0  0  0  0  0  0  0  0  0
    0.6678    2.2937    0.5781 C   0  0  0  0  0  0  0  0  0  0  0  0
    4.5495    2.5812    3.6990 C   0  0  0  0  0  0  0  0  0  0  0  0
    4.4746    0.5606    0.6266 O   0  0  0  0  0  0  0  0  0  0  0  0
   -6.6895   -3.7845   -3.2533 O   0  0  0  0  0  0  0  0  0  0  0  0
    2.7445    1.5931    1.6330 N   0  0  0  0  0  0  0  0  0  0  0  0
   -0.5295    1.4993    0.2995 N   0  0  0  0  0  0  0  0  0  0  0  0
   -3.5034   -0.9331   -1.7503 N   0  0  0  0  0  0  0  0  0  0  0  0
   -3.8363    0.1441   -2.4911 N   0  0  0  0  0  0  0  0  0  0  0  0
   -2.8709    1.0177   -2.3596 N   0  0  0  0  0  0  0  0  0  0  0  0
    5.4767    2.7890    4.6193 N   0  0  0  0  0  0  0  0  0  0  0  0
    6.8023    1.8740    4.3167 S   0  0  0  0  0  0  0  0  0  0  0  0
    7.1130   -0.7349    2.7095 H   0  0  0  0  0  0  0  0  0  0  0  0
    7.9173    0.5714    1.8733 H   0  0  0  0  0  0  0  0  0  0  0  0
    6.4423   -0.1049    1.2243 H   0  0  0  0  0  0  0  0  0  0  0  0
    2.4419    2.0997    2.4155 H   0  0  0  0  0  0  0  0  0  0  0  0
    2.2806    1.2645   -0.3613 H   0  0  0  0  0  0  0  0  0  0  0  0
    1.5386   -0.5216    1.7408 H   0  0  0  0  0  0  0  0  0  0  0  0
    1.2623   -0.7337    0.0282 H   0  0  0  0  0  0  0  0  0  0  0  0
   -0.5564    0.4104    2.0911 H   0  0  0  0  0  0  0  0  0  0  0  0
   -0.9575   -0.5201    0.6672 H   0  0  0  0  0  0  0  0  0  0  0  0
    0.1874    0.6048   -1.4253 H   0  0  0  0  0  0  0  0  0  0  0  0
   -0.5984    2.1470   -1.6664 H   0  0  0  0  0  0  0  0  0  0  0  0
   -1.8216   -1.3984   -0.5041 H   0  0  0  0  0  0  0  0  0  0  0  0
   -4.2543   -2.6141   -0.7879 H   0  0  0  0  0  0  0  0  0  0  0  0
   -3.6425   -2.6560   -3.7308 H   0  0  0  0  0  0  0  0  0  0  0  0
   -4.1548   -4.0299   -2.7799 H   0  0  0  0  0  0  0  0  0  0  0  0
   -5.9575   -2.1277   -4.2149 H   0  0  0  0  0  0  0  0  0  0  0  0
   -6.2867   -4.4835   -2.7329 H   0  0  0  0  0  0  0  0  0  0  0  0
   -6.5692   -2.0859   -1.2720 H   0  0  0  0  0  0  0  0  0  0  0  0
   -6.0568   -0.7121   -2.2229 H   0  0  0  0  0  0  0  0  0  0  0  0
    0.5890    2.7804    1.5278 H   0  0  0  0  0  0  0  0  0  0  0  0
    0.8252    3.0256   -0.1864 H   0  0  0  0  0  0  0  0  0  0  0  0
    3.6329    3.0725    3.7058 H   0  0  0  0  0  0  0  0  0  0  0  0
  1  2  1  0  0  0  0
  1 26  1  0  0  0  0
  1 27  1  0  0  0  0
  1 28  1  0  0  0  0
  2 25  1  0  0  0  0
  2  3  2  0  0  0  0
  3  4  1  0  0  0  0
  3 16  1  0  0  0  0
  4 19  1  0  0  0  0
  4 17  2  0  0  0  0
  5 19  1  0  0  0  0
  5  6  1  0  0  0  0
  5 15  1  0  0  0  0
  5 30  1  6  0  0  0
  6  7  1  0  0  0  0
  6 31  1  0  0  0  0
  6 32  1  0  0  0  0
  7 20  1  0  0  0  0
  7 33  1  0  0  0  0
  7 34  1  0  0  0  0
  8 20  1  0  0  0  0
  8  9  1  0  0  0  0
  8 35  1  0  0  0  0
  8 36  1  0  0  0  0
  9 23  1  0  0  0  0
  9 10  2  0  0  0  0
 10 21  1  0  0  0  0
 10 37  1  0  0  0  0
 11 21  1  0  0  0  0
 11 12  1  0  0  0  0
 11 14  1  0  0  0  0
 11 38  1  1  0  0  0
 12 13  1  0  0  0  0
 12 39  1  0  0  0  0
 12 40  1  0  0  0  0
 13 18  1  0  0  0  0
 13 14  1  0  0  0  0
 13 41  1  6  0  0  0
 14 43  1  0  0  0  0
 14 44  1  0  0  0  0
 15 20  1  0  0  0  0
 15 45  1  0  0  0  0
 15 46  1  0  0  0  0
 16 47  1  0  0  0  0
 16 24  2  0  0  0  0
 18 42  1  0  0  0  0
 19 29  1  0  0  0  0
 21 22  1  0  0  0  0
 22 23  2  0  0  0  0
 24 25  1  0  0  0  0
M  END
>  <score>
0.4425736665725708

$$$$
PV-002902137186
 OpenBabel08202115463D

 40 42  0  0  0  0  0  0  0  0999 V2000
   -0.0431    2.2111    0.4135 C   0  0  0  0  0  0  0  0  0  0  0  0
   -0.0924   -0.2454    0.5800 C   0  0  0  0  0  0  0  0  0  0  0  0
   -1.3303   -0.2080   -0.2412 C   0  0  0  0  0  0  0  0  0  0  0  0
   -2.0232    0.8848   -0.6733 C   0  0  0  0  0  0  0  0  0  0  0  0
   -3.1691    0.5385   -1.4308 C   0  0  0  0  0  0  0  0  0  0  0  0
   -3.3175   -0.8105   -1.5703 C   0  0  0  0  0  0  0  0  0  0  0  0
   -4.3796   -1.5448   -2.2963 C   0  0  0  0  0  0  0  0  0  0  0  0
   -4.4655   -2.9198   -2.1973 C   0  0  0  0  0  0  0  0  0  0  0  0
   -5.4694   -3.5752   -2.8887 C   0  0  0  0  0  0  0  0  0  0  0  0
   -6.2684   -1.6105   -3.7411 C   0  0  0  0  0  0  0  0  0  0  0  0
   -5.3004   -0.8767   -3.0821 C   0  0  0  0  0  0  0  0  0  0  0  0
    1.9310    0.9215    1.1448 C   0  0  0  0  0  0  0  0  0  0  0  0
    3.0129    0.9231    0.2782 C   0  0  0  0  0  0  0  0  0  0  0  0
    4.3007    0.9209    0.7801 C   0  0  0  0  0  0  0  0  0  0  0  0
    4.5103    0.9224    2.1504 C   0  0  0  0  0  0  0  0  0  0  0  0
    5.9173    0.9259    2.6997 C   0  0  0  0  0  0  0  0  0  0  0  0
    3.4317    0.9209    3.0146 C   0  0  0  0  0  0  0  0  0  0  0  0
    2.1402    0.9231    2.5110 C   0  0  0  0  0  0  0  0  0  0  0  0
    0.5976    0.9183    0.6880 N   0  0  0  0  0  0  0  0  0  0  0  0
   -6.3660   -2.9408   -3.6575 N   0  0  0  0  0  0  0  0  0  0  0  0
    6.4974   -0.4312    2.7485 N   0  0  0  0  0  0  0  0  0  0  0  0
    0.2708   -1.2861    1.1248 O   0  0  0  0  0  0  0  0  0  0  0  0
   -2.0660   -1.6662   -0.7671 S   0  0  0  0  0  0  0  0  0  0  0  0
    0.6640    2.9996    0.5658 H   0  0  0  0  0  0  0  0  0  0  0  0
   -0.8738    2.3447    1.0746 H   0  0  0  0  0  0  0  0  0  0  0  0
   -0.3862    2.2309   -0.5998 H   0  0  0  0  0  0  0  0  0  0  0  0
   -1.7411    1.8647   -0.4690 H   0  0  0  0  0  0  0  0  0  0  0  0
   -3.8252    1.2361   -1.8362 H   0  0  0  0  0  0  0  0  0  0  0  0
   -3.7887   -3.4524   -1.6144 H   0  0  0  0  0  0  0  0  0  0  0  0
   -5.5313   -4.6102   -2.8080 H   0  0  0  0  0  0  0  0  0  0  0  0
   -6.9561   -1.1015   -4.3323 H   0  0  0  0  0  0  0  0  0  0  0  0
   -5.2652    0.1585   -3.1754 H   0  0  0  0  0  0  0  0  0  0  0  0
    2.8555    0.9260   -0.7499 H   0  0  0  0  0  0  0  0  0  0  0  0
    5.1123    0.9180    0.1298 H   0  0  0  0  0  0  0  0  0  0  0  0
    5.8998    1.3294    3.6905 H   0  0  0  0  0  0  0  0  0  0  0  0
    6.5303    1.5408    2.0744 H   0  0  0  0  0  0  0  0  0  0  0  0
    7.2325   -0.4496    3.3964 H   0  0  0  0  0  0  0  0  0  0  0  0
    6.8377   -0.6728    1.8618 H   0  0  0  0  0  0  0  0  0  0  0  0
    3.5890    0.9180    4.0426 H   0  0  0  0  0  0  0  0  0  0  0  0
    1.3286    0.9260    3.1612 H   0  0  0  0  0  0  0  0  0  0  0  0
  1 19  1  0  0  0  0
  1 24  1  0  0  0  0
  1 25  1  0  0  0  0
  1 26  1  0  0  0  0
  2 19  1  0  0  0  0
  2  3  1  0  0  0  0
  2 22  2  0  0  0  0
  3 23  1  0  0  0  0
  3  4  2  0  0  0  0
  4  5  1  0  0  0  0
  4 27  1  0  0  0  0
  5 28  1  0  0  0  0
  5  6  2  0  0  0  0
  6  7  1  0  0  0  0
  6 23  1  0  0  0  0
  7 11  1  0  0  0  0
  7  8  2  0  0  0  0
  8  9  1  0  0  0  0
  8 29  1  0  0  0  0
  9 30  1  0  0  0  0
  9 20  2  0  0  0  0
 10 20  1  0  0  0  0
 10 31  1  0  0  0  0
 10 11  2  0  0  0  0
 11 32  1  0  0  0  0
 12 19  1  0  0  0  0
 12 18  1  0  0  0  0
 12 13  2  0  0  0  0
 13 14  1  0  0  0  0
 13 33  1  0  0  0  0
 14 34  1  0  0  0  0
 14 15  2  0  0  0  0
 15 16  1  0  0  0  0
 15 17  1  0  0  0  0
 16 21  1  0  0  0  0
 16 35  1  0  0  0  0
 16 36  1  0  0  0  0
 17 39  1  0  0  0  0
 17 18  2  0  0  0  0
 18 40  1  0  0  0  0
 21 37  1  0  0  0  0
 21 38  1  0  0  0  0
M  END
>  <score>
0.44267004728317261

$$$$
PV-003409189614
 OpenBabel08202115463D

 49 51  0  0  0  0  0  0  0  0999 V2000
    6.9146   -0.8788    3.6578 C   0  0  0  0  0  0  0  0  0  0  0  0
    6.3396    0.3775    3.0475 C   0  0  0  0  0  0  0  0  0  0  0  0
    7.0325    1.5465    2.9265 C   0  0  0  0  0  0  0  0  0  0  0  0
    4.7336    1.7124    2.0513 C   0  0  0  0  0  0  0  0  0  0  0  0
    3.4541    2.1948    1.4465 C   0  0  0  0  0  0  0  0  0  0  0  0
    1.2879    1.5752    0.4956 C   0  0  0  0  0  0  0  0  0  0  0  0
    0.4788    0.3191    0.2870 C   0  0  0  0  0  0  0  0  0  0  0  0
   -0.8918    0.5779   -0.3410 C   0  0  0  0  0  0  0  0  0  0  0  0
   -2.8609   -0.7414   -0.9428 C   0  0  0  0  0  0  0  0  0  0  0  0
   -3.5497   -2.0798   -0.9598 C   0  0  0  0  0  0  0  0  0  0  0  0
   -4.5723   -2.2103   -2.0810 C   0  0  1  0  0  0  0  0  0  0  0  0
   -5.8090   -1.3123   -2.0050 C   0  0  0  0  0  0  0  0  0  0  0  0
   -4.0638   -2.5114   -3.4560 C   0  0  0  0  0  0  0  0  0  0  0  0
   -4.7810   -3.5699   -2.6785 C   0  0  1  0  0  0  0  0  0  0  0  0
   -0.8573    1.4263   -1.6350 C   0  0  0  0  0  0  0  0  0  0  0  0
   -1.2108    2.6728   -0.7816 C   0  0  0  0  0  0  0  0  0  0  0  0
   -1.7005    1.7326    0.3215 C   0  0  0  0  0  0  0  0  0  0  0  0
    5.0211    0.4708    2.5380 C   0  0  0  0  0  0  0  0  0  0  0  0
    6.0752    2.7715    2.2009 S   0  0  0  0  0  0  0  0  0  0  0  0
    3.2832    3.3824    1.2058 O   0  0  0  0  0  0  0  0  0  0  0  0
   -3.4792    0.2301   -1.3756 O   0  0  0  0  0  0  0  0  0  0  0  0
    2.5284    1.2658    1.1908 N   0  0  0  0  0  0  0  0  0  0  0  0
   -1.6168   -0.6783   -0.4598 N   0  0  0  0  0  0  0  0  0  0  0  0
   -3.9672   -4.5895   -2.1585 F   0  0  0  0  0  0  0  0  0  0  0  0
    7.5640   -1.3537    2.9523 H   0  0  0  0  0  0  0  0  0  0  0  0
    6.1190   -1.5463    3.9154 H   0  0  0  0  0  0  0  0  0  0  0  0
    7.4682   -0.6264    4.5380 H   0  0  0  0  0  0  0  0  0  0  0  0
    8.0169    1.6784    3.2351 H   0  0  0  0  0  0  0  0  0  0  0  0
    2.6904    0.3441    1.4816 H   0  0  0  0  0  0  0  0  0  0  0  0
    1.5151    2.0107   -0.4550 H   0  0  0  0  0  0  0  0  0  0  0  0
    0.7194    2.2685    1.0795 H   0  0  0  0  0  0  0  0  0  0  0  0
    0.3334   -0.1523    1.2365 H   0  0  0  0  0  0  0  0  0  0  0  0
    1.0286   -0.3357   -0.3564 H   0  0  0  0  0  0  0  0  0  0  0  0
   -1.1771   -1.5068   -0.1757 H   0  0  0  0  0  0  0  0  0  0  0  0
   -4.0506   -2.2170   -0.0243 H   0  0  0  0  0  0  0  0  0  0  0  0
   -2.8093   -2.8423   -1.0837 H   0  0  0  0  0  0  0  0  0  0  0  0
   -6.3206   -1.6885   -1.1438 H   0  0  0  0  0  0  0  0  0  0  0  0
   -6.4109   -1.4096   -2.8843 H   0  0  0  0  0  0  0  0  0  0  0  0
   -5.5334   -0.2869   -1.8724 H   0  0  0  0  0  0  0  0  0  0  0  0
   -3.0115   -2.5966   -3.6299 H   0  0  0  0  0  0  0  0  0  0  0  0
   -4.5317   -2.0650   -4.3085 H   0  0  0  0  0  0  0  0  0  0  0  0
   -5.7746   -3.8123   -2.9928 H   0  0  0  0  0  0  0  0  0  0  0  0
    0.1013    1.4719   -2.1081 H   0  0  0  0  0  0  0  0  0  0  0  0
   -1.6001    1.1603   -2.3578 H   0  0  0  0  0  0  0  0  0  0  0  0
   -0.3692    3.2744   -0.5082 H   0  0  0  0  0  0  0  0  0  0  0  0
   -1.9728    3.2950   -1.2026 H   0  0  0  0  0  0  0  0  0  0  0  0
   -2.7594    1.5793    0.3315 H   0  0  0  0  0  0  0  0  0  0  0  0
   -1.3683    1.9957    1.3040 H   0  0  0  0  0  0  0  0  0  0  0  0
    4.3463   -0.3205    2.5353 H   0  0  0  0  0  0  0  0  0  0  0  0
  1  2  1  0  0  0  0
  1 25  1  0  0  0  0
  1 26  1  0  0  0  0
  1 27  1  0  0  0  0
  2 18  1  0  0  0  0
  2  3  2  0  0  0  0
  3 19  1  0  0  0  0
  3 28  1  0  0  0  0
  4 19  1  0  0  0  0
  4  5  1  0  0  0  0
  4 18  2  0  0  0  0
  5 22  1  0  0  0  0
  5 20  2  0  0  0  0
  6 22  1  0  0  0  0
  6  7  1  0  0  0  0
  6 30  1  0  0  0  0
  6 31  1  0  0  0  0
  7  8  1  0  0  0  0
  7 32  1  0  0  0  0
  7 33  1  0  0  0  0
  8 23  1  0  0  0  0
  8 15  1  0  0  0  0
  8 17  1  0  0  0  0
  9 23  1  0  0  0  0
  9 10  1  0  0  0  0
  9 21  2  0  0  0  0
 10 35  1  0  0  0  0
 10 36  1  0  0  0  0
 11 10  1  1  0  0  0
 11 12  1  0  0  0  0
 11 13  1  0  0  0  0
 11 14  1  0  0  0  0
 12 37  1  0  0  0  0
 12 38  1  0  0  0  0
 12 39  1  0  0  0  0
 13 14  1  0  0  0  0
 13 40  1  0  0  0  0
 13 41  1  0  0  0  0
 14 24  1  0  0  0  0
 14 42  1  6  0  0  0
 15 16  1  0  0  0  0
 15 43  1  0  0  0  0
 15 44  1  0  0  0  0
 16 17  1  0  0  0  0
 16 45  1  0  0  0  0
 16 46  1  0  0  0  0
 17 47  1  0  0  0  0
 17 48  1  0  0  0  0
 18 49  1  0  0  0  0
 22 29  1  0  0  0  0
 23 34  1  0  0  0  0
M  END
>  <score>
0.44280660152435303

$$$$
PV-004025026068
 OpenBabel08202115463D

 55 56  0  0  0  0  0  0  0  0999 V2000
    1.6994    2.9182    2.7731 C   0  0  0  0  0  0  0  0  0  0  0  0
    1.3065    1.8639    1.7352 C   0  0  1  0  0  0  0  0  0  0  0  0
   -0.0084    2.2098    1.0747 C   0  0  0  0  0  0  0  0  0  0  0  0
   -1.0910    0.1410    0.3224 C   0  0  0  0  0  0  0  0  0  0  0  0
   -1.4889   -0.7063   -0.8705 C   0  0  0  0  0  0  0  0  0  0  0  0
   -2.2799   -1.9149   -0.3863 C   0  0  0  0  0  0  0  0  0  0  0  0
   -2.8251   -2.7262   -1.5530 C   0  0  0  0  0  0  0  0  0  0  0  0
   -4.8760   -2.1087   -2.7842 C   0  0  0  0  0  0  0  0  0  0  0  0
   -6.6549   -3.5071   -2.7287 C   0  0  0  0  0  0  0  0  0  0  0  0
   -7.4097   -2.5900   -3.4355 C   0  0  0  0  0  0  0  0  0  0  0  0
   -6.7820   -1.4130   -3.7898 C   0  0  0  0  0  0  0  0  0  0  0  0
   -2.8515   -0.7092   -2.9720 C   0  0  0  0  0  0  0  0  0  0  0  0
   -2.3286    0.1287   -1.8191 C   0  0  0  0  0  0  0  0  0  0  0  0
    2.3972    1.7265    0.6978 C   0  0  0  0  0  0  0  0  0  0  0  0
    4.6765    1.7793    1.5968 C   0  0  0  0  0  0  0  0  0  0  0  0
    5.7646    0.9869    2.2950 C   0  0  0  0  0  0  0  0  0  0  0  0
    6.2497   -0.1772    1.4134 C   0  0  0  0  0  0  0  0  0  0  0  0
    5.2903    0.4336    3.6482 C   0  0  0  0  0  0  0  0  0  0  0  0
   -0.3899    1.2435    0.0432 N   0  0  0  0  0  0  0  0  0  0  0  0
   -3.5948   -1.8623   -2.4565 N   0  0  0  0  0  0  0  0  0  0  0  0
   -5.3749   -3.2799   -2.3892 N   0  0  0  0  0  0  0  0  0  0  0  0
   -5.5061   -1.1518   -3.4694 N   0  0  0  0  0  0  0  0  0  0  0  0
    3.5973    1.0832    1.2282 N   0  0  0  0  0  0  0  0  0  0  0  0
   -1.4026   -0.1817    1.4657 O   0  0  0  0  0  0  0  0  0  0  0  0
    4.7975    2.9863    1.3914 O   0  0  0  0  0  0  0  0  0  0  0  0
    6.9123    1.7922    2.5539 O   0  0  0  0  0  0  0  0  0  0  0  0
    2.6506    2.6678    3.1942 H   0  0  0  0  0  0  0  0  0  0  0  0
    0.9627    2.9467    3.5487 H   0  0  0  0  0  0  0  0  0  0  0  0
    1.7594    3.8771    2.3021 H   0  0  0  0  0  0  0  0  0  0  0  0
    1.1961    0.9243    2.2351 H   0  0  0  0  0  0  0  0  0  0  0  0
    0.0782    3.1763    0.6239 H   0  0  0  0  0  0  0  0  0  0  0  0
   -0.7727    2.2320    1.8232 H   0  0  0  0  0  0  0  0  0  0  0  0
   -0.1217    1.4112   -0.8844 H   0  0  0  0  0  0  0  0  0  0  0  0
   -0.6096   -1.0414   -1.3798 H   0  0  0  0  0  0  0  0  0  0  0  0
   -3.0980   -1.5771    0.2149 H   0  0  0  0  0  0  0  0  0  0  0  0
   -1.6383   -2.5380    0.2010 H   0  0  0  0  0  0  0  0  0  0  0  0
   -2.0098   -3.1627   -2.0912 H   0  0  0  0  0  0  0  0  0  0  0  0
   -3.4610   -3.5007   -1.1780 H   0  0  0  0  0  0  0  0  0  0  0  0
   -7.0944   -4.4072   -2.4490 H   0  0  0  0  0  0  0  0  0  0  0  0
   -8.4011   -2.7775   -3.6878 H   0  0  0  0  0  0  0  0  0  0  0  0
   -7.3188   -0.7015   -4.3256 H   0  0  0  0  0  0  0  0  0  0  0  0
   -3.5000   -0.1120   -3.5783 H   0  0  0  0  0  0  0  0  0  0  0  0
   -2.0278   -1.0535   -3.5618 H   0  0  0  0  0  0  0  0  0  0  0  0
   -1.7277    0.9232   -2.2098 H   0  0  0  0  0  0  0  0  0  0  0  0
   -3.1579    0.5392   -1.2819 H   0  0  0  0  0  0  0  0  0  0  0  0
    2.6588    2.7019    0.3442 H   0  0  0  0  0  0  0  0  0  0  0  0
    2.0247    1.1397   -0.1157 H   0  0  0  0  0  0  0  0  0  0  0  0
    3.6110    0.1073    1.3166 H   0  0  0  0  0  0  0  0  0  0  0  0
    6.9829   -0.7467    1.9453 H   0  0  0  0  0  0  0  0  0  0  0  0
    6.6830    0.2120    0.5158 H   0  0  0  0  0  0  0  0  0  0  0  0
    5.4204   -0.8065    1.1659 H   0  0  0  0  0  0  0  0  0  0  0  0
    5.0519    1.2459    4.3025 H   0  0  0  0  0  0  0  0  0  0  0  0
    6.0681   -0.1583    4.0836 H   0  0  0  0  0  0  0  0  0  0  0  0
    4.4207   -0.1722    3.5006 H   0  0  0  0  0  0  0  0  0  0  0  0
    7.5451    1.6875    1.8395 H   0  0  0  0  0  0  0  0  0  0  0  0
  1  2  1  0  0  0  0
  1 27  1  0  0  0  0
  1 28  1  0  0  0  0
  1 29  1  0  0  0  0
  2  3  1  0  0  0  0
  2 14  1  0  0  0  0
  2 30  1  1  0  0  0
  3 19  1  0  0  0  0
  3 31  1  0  0  0  0
  3 32  1  0  0  0  0
  4 19  1  0  0  0  0
  4  5  1  0  0  0  0
  4 24  2  0  0  0  0
  5  6  1  0  0  0  0
  5 13  1  0  0  0  0
  5 34  1  0  0  0  0
  6  7  1  0  0  0  0
  6 35  1  0  0  0  0
  6 36  1  0  0  0  0
  7 20  1  0  0  0  0
  7 37  1  0  0  0  0
  7 38  1  0  0  0  0
  8 20  1  0  0  0  0
  8 22  1  0  0  0  0
  8 21  2  0  0  0  0
  9 21  1  0  0  0  0
  9 39  1  0  0  0  0
  9 10  2  0  0  0  0
 10 11  1  0  0  0  0
 10 40  1  0  0  0  0
 11 41  1  0  0  0  0
 11 22  2  0  0  0  0
 12 20  1  0  0  0  0
 12 13  1  0  0  0  0
 12 42  1  0  0  0  0
 12 43  1  0  0  0  0
 13 44  1  0  0  0  0
 13 45  1  0  0  0  0
 14 23  1  0  0  0  0
 14 46  1  0  0  0  0
 14 47  1  0  0  0  0
 15 23  1  0  0  0  0
 15 16  1  0  0  0  0
 15 25  2  0  0  0  0
 16 17  1  0  0  0  0
 16 18  1  0  0  0  0
 16 26  1  0  0  0  0
 17 49  1  0  0  0  0
 17 50  1  0  0  0  0
 17 51  1  0  0  0  0
 18 52  1  0  0  0  0
 18 53  1  0  0  0  0
 18 54  1  0  0  0  0
 19 33  1  0  0  0  0
 23 48  1  0  0  0  0
 26 55  1  0  0  0  0
M  END
>  <score>
0.44284099340438843

$$$$
Z4262031500
 OpenBabel08202115463D

 63 65  0  0  0  0  0  0  0  0999 V2000
   -7.0948   -4.3889   -3.8961 C   0  0  0  0  0  0  0  0  0  0  0  0
   -6.8126   -3.1571   -3.1076 C   0  0  0  0  0  0  0  0  0  0  0  0
   -6.4546   -2.1609   -1.0039 C   0  0  1  0  0  0  0  0  0  0  0  0
   -6.6145   -2.3654    0.5063 C   0  0  0  0  0  0  0  0  0  0  0  0
   -5.0322   -1.8375   -1.3383 C   0  0  0  0  0  0  0  0  0  0  0  0
   -3.2068   -0.6941   -1.7601 C   0  0  0  0  0  0  0  0  0  0  0  0
   -2.4933    0.6168   -1.9192 C   0  0  0  0  0  0  0  0  0  0  0  0
   -0.4409    1.8431   -1.9889 C   0  0  0  0  0  0  0  0  0  0  0  0
    1.0528    1.7958   -1.7256 C   0  0  0  0  0  0  0  0  0  0  0  0
    2.7720    1.3758   -0.0995 C   0  0  0  0  0  0  0  0  0  0  0  0
    3.1227    1.2610    1.3639 C   0  0  0  0  0  0  0  0  0  0  0  0
    5.2590    2.3055    1.0588 C   0  0  0  0  0  0  0  0  0  0  0  0
    6.7415    2.2154    1.3506 C   0  0  0  0  0  0  0  0  0  0  0  0
    6.3306    0.9645    3.2643 C   0  0  0  0  0  0  0  0  0  0  0  0
    4.8445    1.0304    3.0147 C   0  0  0  0  0  0  0  0  0  0  0  0
    4.1886   -0.2261    3.5587 C   0  0  0  0  0  0  0  0  0  0  0  0
    4.2687    2.2528    3.7227 C   0  0  0  0  0  0  0  0  0  0  0  0
    0.7070    0.1501   -0.0318 C   0  0  0  0  0  0  0  0  0  0  0  0
   -0.7866    0.1975   -0.2951 C   0  0  0  0  0  0  0  0  0  0  0  0
   -2.6782   -1.9420   -1.8904 C   0  0  0  0  0  0  0  0  0  0  0  0
   -6.8715   -3.3312   -1.6957 O   0  0  0  0  0  0  0  0  0  0  0  0
    6.9922    2.1123    2.7440 O   0  0  0  0  0  0  0  0  0  0  0  0
   -4.5397   -0.6359   -1.4487 N   0  0  0  0  0  0  0  0  0  0  0  0
   -1.0468    0.5449   -1.6934 N   0  0  0  0  0  0  0  0  0  0  0  0
    1.3129    1.4484   -0.3273 N   0  0  0  0  0  0  0  0  0  0  0  0
    4.5785    1.1320    1.5880 N   0  0  0  0  0  0  0  0  0  0  0  0
   -3.8991   -3.1136   -1.6124 S   0  0  0  0  0  0  0  0  0  0  0  0
   -7.9891   -4.8494   -3.5313 H   0  0  0  0  0  0  0  0  0  0  0  0
   -6.2765   -5.0710   -3.7966 H   0  0  0  0  0  0  0  0  0  0  0  0
   -7.2216   -4.1311   -4.9268 H   0  0  0  0  0  0  0  0  0  0  0  0
   -7.5308   -2.4131   -3.3823 H   0  0  0  0  0  0  0  0  0  0  0  0
   -5.8305   -2.8162   -3.3611 H   0  0  0  0  0  0  0  0  0  0  0  0
   -7.0660   -1.3327   -1.2958 H   0  0  0  0  0  0  0  0  0  0  0  0
   -7.6329   -2.6071    0.7282 H   0  0  0  0  0  0  0  0  0  0  0  0
   -6.3418   -1.4664    1.0185 H   0  0  0  0  0  0  0  0  0  0  0  0
   -5.9803   -3.1654    0.8268 H   0  0  0  0  0  0  0  0  0  0  0  0
   -2.9079    1.3116   -1.2190 H   0  0  0  0  0  0  0  0  0  0  0  0
   -2.6601    0.9708   -2.9151 H   0  0  0  0  0  0  0  0  0  0  0  0
   -0.8860    2.5908   -1.3661 H   0  0  0  0  0  0  0  0  0  0  0  0
   -0.6110    2.0868   -3.0168 H   0  0  0  0  0  0  0  0  0  0  0  0
    1.4996    1.0598   -2.3608 H   0  0  0  0  0  0  0  0  0  0  0  0
    1.4784    2.7548   -1.9357 H   0  0  0  0  0  0  0  0  0  0  0  0
    3.2252    2.2618   -0.4926 H   0  0  0  0  0  0  0  0  0  0  0  0
    3.1573    0.5197   -0.6129 H   0  0  0  0  0  0  0  0  0  0  0  0
    2.6356    0.3978    1.7668 H   0  0  0  0  0  0  0  0  0  0  0  0
    2.7739    2.1368    1.8700 H   0  0  0  0  0  0  0  0  0  0  0  0
    5.1081    2.3561    0.0007 H   0  0  0  0  0  0  0  0  0  0  0  0
    4.8596    3.1849    1.5191 H   0  0  0  0  0  0  0  0  0  0  0  0
    7.1403    1.3517    0.8609 H   0  0  0  0  0  0  0  0  0  0  0  0
    7.2236    3.0936    0.9748 H   0  0  0  0  0  0  0  0  0  0  0  0
    6.5051    0.9094    4.3186 H   0  0  0  0  0  0  0  0  0  0  0  0
    6.7253    0.0899    2.7908 H   0  0  0  0  0  0  0  0  0  0  0  0
    4.2562   -0.2305    4.6266 H   0  0  0  0  0  0  0  0  0  0  0  0
    4.6880   -1.0872    3.1664 H   0  0  0  0  0  0  0  0  0  0  0  0
    3.1595   -0.2460    3.2665 H   0  0  0  0  0  0  0  0  0  0  0  0
    3.2003    2.2250    3.6711 H   0  0  0  0  0  0  0  0  0  0  0  0
    4.6255    3.1418    3.2460 H   0  0  0  0  0  0  0  0  0  0  0  0
    4.5763    2.2489    4.7475 H   0  0  0  0  0  0  0  0  0  0  0  0
    0.8772   -0.0936    0.9961 H   0  0  0  0  0  0  0  0  0  0  0  0
    1.1521   -0.5975   -0.6546 H   0  0  0  0  0  0  0  0  0  0  0  0
   -1.2123   -0.7615   -0.0850 H   0  0  0  0  0  0  0  0  0  0  0  0
   -1.2335    0.9335    0.3401 H   0  0  0  0  0  0  0  0  0  0  0  0
   -1.6866   -2.1523   -2.1229 H   0  0  0  0  0  0  0  0  0  0  0  0
  1  2  1  0  0  0  0
  1 28  1  0  0  0  0
  1 29  1  0  0  0  0
  1 30  1  0  0  0  0
  2 21  1  0  0  0  0
  2 31  1  0  0  0  0
  2 32  1  0  0  0  0
  3 21  1  0  0  0  0
  3  4  1  0  0  0  0
  3  5  1  0  0  0  0
  3 33  1  6  0  0  0
  4 34  1  0  0  0  0
  4 35  1  0  0  0  0
  4 36  1  0  0  0  0
  5 27  1  0  0  0  0
  5 23  2  0  0  0  0
  6 23  1  0  0  0  0
  6  7  1  0  0  0  0
  6 20  2  0  0  0  0
  7 24  1  0  0  0  0
  7 37  1  0  0  0  0
  7 38  1  0  0  0  0
  8 24  1  0  0  0  0
  8  9  1  0  0  0  0
  8 39  1  0  0  0  0
  8 40  1  0  0  0  0
  9 25  1  0  0  0  0
  9 41  1  0  0  0  0
  9 42  1  0  0  0  0
 10 25  1  0  0  0  0
 10 11  1  0  0  0  0
 10 43  1  0  0  0  0
 10 44  1  0  0  0  0
 11 26  1  0  0  0  0
 11 45  1  0  0  0  0
 11 46  1  0  0  0  0
 12 26  1  0  0  0  0
 12 13  1  0  0  0  0
 12 47  1  0  0  0  0
 12 48  1  0  0  0  0
 13 22  1  0  0  0  0
 13 49  1  0  0  0  0
 13 50  1  0  0  0  0
 14 22  1  0  0  0  0
 14 15  1  0  0  0  0
 14 51  1  0  0  0  0
 14 52  1  0  0  0  0
 15 26  1  0  0  0  0
 15 16  1  0  0  0  0
 15 17  1  0  0  0  0
 16 53  1  0  0  0  0
 16 54  1  0  0  0  0
 16 55  1  0  0  0  0
 17 56  1  0  0  0  0
 17 57  1  0  0  0  0
 17 58  1  0  0  0  0
 18 25  1  0  0  0  0
 18 19  1  0  0  0  0
 18 59  1  0  0  0  0
 18 60  1  0  0  0  0
 19 24  1  0  0  0  0
 19 61  1  0  0  0  0
 19 62  1  0  0  0  0
 20 27  1  0  0  0  0
 20 63  1  0  0  0  0
M  END
>  <score>
0.44286096096038818

$$$$
PV-002938209207
 OpenBabel08202115463D

 46 48  0  0  0  0  0  0  0  0999 V2000
    0.1540   -0.5906   -0.4670 O   0  0  0  0  0  0  0  0  0  0  0  0
   -7.1007   -2.2457   -3.9032 O   0  0  0  0  0  0  0  0  0  0  0  0
    3.0013    2.1892    2.5815 O   0  0  0  0  0  0  0  0  0  0  0  0
   -0.3753    0.5244   -0.4138 C   0  0  0  0  0  0  0  0  0  0  0  0
   -2.1418   -0.1213   -1.9767 C   0  0  0  0  0  0  0  0  0  0  0  0
   -3.1622   -0.9715   -1.2374 C   0  0  0  0  0  0  0  0  0  0  0  0
   -3.9037   -1.9208   -2.1401 C   0  0  0  0  0  0  0  0  0  0  0  0
   -5.1737   -1.5986   -2.5926 C   0  0  0  0  0  0  0  0  0  0  0  0
   -5.8562   -2.4730   -3.4171 C   0  0  0  0  0  0  0  0  0  0  0  0
   -5.2684   -3.6699   -3.7959 C   0  0  0  0  0  0  0  0  0  0  0  0
   -4.0021   -3.9913   -3.3449 C   0  0  0  0  0  0  0  0  0  0  0  0
   -3.3178   -3.1142   -2.5179 C   0  0  0  0  0  0  0  0  0  0  0  0
    0.1957    1.5968    0.4380 C   0  0  0  0  0  0  0  0  0  0  0  0
    1.3714    1.4099    1.1439 C   0  0  0  0  0  0  0  0  0  0  0  0
    1.8499    2.4452    1.9230 C   0  0  0  0  0  0  0  0  0  0  0  0
    3.4807    0.8332    2.6717 C   0  0  0  0  0  0  0  0  0  0  0  0
    4.3399    0.4773    1.4119 C   0  0  0  0  0  0  0  0  0  0  0  0
    5.7968    0.8295    1.8666 C   0  0  0  0  0  0  0  0  0  0  0  0
    5.8287    0.3976    3.3454 C   0  0  0  0  0  0  0  0  0  0  0  0
    4.4204    0.6754    3.9002 C   0  0  0  0  0  0  0  0  0  0  0  0
    1.1352    3.6280    1.9674 C   0  0  0  0  0  0  0  0  0  0  0  0
   -0.0277    3.7301    1.2279 C   0  0  0  0  0  0  0  0  0  0  0  0
   -1.4756    0.8349   -1.1051 N   0  0  0  0  0  0  0  0  0  0  0  0
   -0.5049    2.7393    0.4684 N   0  0  0  0  0  0  0  0  0  0  0  0
   -3.4332   -5.1566   -3.7088 F   0  0  0  0  0  0  0  0  0  0  0  0
   -1.8469    1.7381   -1.0225 H   0  0  0  0  0  0  0  0  0  0  0  0
   -1.4038   -0.7667   -2.4052 H   0  0  0  0  0  0  0  0  0  0  0  0
   -2.6424    0.4154   -2.7553 H   0  0  0  0  0  0  0  0  0  0  0  0
   -3.8720   -0.3217   -0.7697 H   0  0  0  0  0  0  0  0  0  0  0  0
   -2.6523   -1.5414   -0.4889 H   0  0  0  0  0  0  0  0  0  0  0  0
   -5.6131   -0.6988   -2.3116 H   0  0  0  0  0  0  0  0  0  0  0  0
   -7.0391   -1.7465   -4.7209 H   0  0  0  0  0  0  0  0  0  0  0  0
   -5.7803   -4.3261   -4.4196 H   0  0  0  0  0  0  0  0  0  0  0  0
   -2.3633   -3.3542   -2.1818 H   0  0  0  0  0  0  0  0  0  0  0  0
    1.8848    0.5071    1.0888 H   0  0  0  0  0  0  0  0  0  0  0  0
    2.6489    0.1651    2.7535 H   0  0  0  0  0  0  0  0  0  0  0  0
    4.0475    1.0671    0.5683 H   0  0  0  0  0  0  0  0  0  0  0  0
    4.2536   -0.5611    1.1688 H   0  0  0  0  0  0  0  0  0  0  0  0
    5.9837    1.8786    1.7710 H   0  0  0  0  0  0  0  0  0  0  0  0
    6.5179    0.2845    1.2939 H   0  0  0  0  0  0  0  0  0  0  0  0
    6.0597   -0.6442    3.4233 H   0  0  0  0  0  0  0  0  0  0  0  0
    6.5585    0.9664    3.8828 H   0  0  0  0  0  0  0  0  0  0  0  0
    4.4233    1.5745    4.4803 H   0  0  0  0  0  0  0  0  0  0  0  0
    4.0963   -0.1420    4.5098 H   0  0  0  0  0  0  0  0  0  0  0  0
    1.4665    4.4257    2.5465 H   0  0  0  0  0  0  0  0  0  0  0  0
   -0.5587    4.6235    1.2643 H   0  0  0  0  0  0  0  0  0  0  0  0
  2 32  1  0  0  0  0
  4 23  1  0  0  0  0
  4 13  1  0  0  0  0
  4  1  2  0  0  0  0
  5 23  1  0  0  0  0
  5  6  1  0  0  0  0
  5 27  1  0  0  0  0
  5 28  1  0  0  0  0
  6  7  1  0  0  0  0
  6 29  1  0  0  0  0
  6 30  1  0  0  0  0
  7 12  1  0  0  0  0
  7  8  2  0  0  0  0
  8  9  1  0  0  0  0
  8 31  1  0  0  0  0
  9  2  1  0  0  0  0
  9 10  2  0  0  0  0
 10 11  1  0  0  0  0
 10 33  1  0  0  0  0
 11 25  1  0  0  0  0
 11 12  2  0  0  0  0
 12 34  1  0  0  0  0
 13 24  1  0  0  0  0
 13 14  2  0  0  0  0
 14 15  1  0  0  0  0
 14 35  1  0  0  0  0
 15  3  1  0  0  0  0
 15 21  2  0  0  0  0
 16  3  1  0  0  0  0
 16 17  1  0  0  0  0
 16 20  1  0  0  0  0
 16 36  1  0  0  0  0
 17 18  1  0  0  0  0
 17 37  1  0  0  0  0
 17 38  1  0  0  0  0
 18 19  1  0  0  0  0
 18 39  1  0  0  0  0
 18 40  1  0  0  0  0
 19 20  1  0  0  0  0
 19 41  1  0  0  0  0
 19 42  1  0  0  0  0
 20 43  1  0  0  0  0
 20 44  1  0  0  0  0
 21 22  1  0  0  0  0
 21 45  1  0  0  0  0
 22 46  1  0  0  0  0
 22 24  2  0  0  0  0
 23 26  1  0  0  0  0
M  END
>  <score>
0.44299572706222534

$$$$
Z3679637976
 OpenBabel08202115463D

 55 57  0  0  0  0  0  0  0  0999 V2000
    6.8554    3.0634    2.9698 C   0  0  0  0  0  0  0  0  0  0  0  0
    5.4356    2.9387    3.4621 C   0  0  0  0  0  0  0  0  0  0  0  0
    4.0900    1.5090    1.8207 C   0  0  0  0  0  0  0  0  0  0  0  0
    3.6936    0.0404    1.7913 C   0  0  2  0  0  0  0  0  0  0  0  0
    2.1885   -0.0972    1.8086 C   0  0  0  0  0  0  0  0  0  0  0  0
    0.1593    0.6430    0.5932 C   0  0  0  0  0  0  0  0  0  0  0  0
   -1.7551    1.5485   -0.6295 C   0  0  0  0  0  0  0  0  0  0  0  0
   -2.4941    0.3822   -1.2445 C   0  0  1  0  0  0  0  0  0  0  0  0
   -2.0314    0.2049   -2.6937 C   0  0  0  0  0  0  0  0  0  0  0  0
   -2.7867   -0.9737   -3.3191 C   0  0  0  0  0  0  0  0  0  0  0  0
   -3.7469   -1.5545   -2.2744 C   0  0  1  0  0  0  0  0  0  0  0  0
   -4.5475   -2.6817   -2.8737 C   0  0  0  0  0  0  0  0  0  0  0  0
   -6.7487   -3.3133   -3.5289 C   0  0  0  0  0  0  0  0  0  0  0  0
   -2.9313   -2.0675   -1.0689 C   0  0  0  0  0  0  0  0  0  0  0  0
   -2.1766   -0.8871   -0.4487 C   0  0  0  0  0  0  0  0  0  0  0  0
   -4.6820   -0.4408   -1.7897 C   0  0  0  0  0  0  0  0  0  0  0  0
    4.2935   -0.5814    3.0383 C   0  0  0  0  0  0  0  0  0  0  0  0
    5.0090    0.5435    3.7401 C   0  0  0  0  0  0  0  0  0  0  0  0
    4.8633    1.6590    3.0401 N   0  0  0  0  0  0  0  0  0  0  0  0
    1.5506    0.5690    0.6716 N   0  0  0  0  0  0  0  0  0  0  0  0
   -0.3326    1.2862   -0.4694 N   0  0  0  0  0  0  0  0  0  0  0  0
   -0.5180    0.1221    1.4892 O   0  0  0  0  0  0  0  0  0  0  0  0
   -4.0920   -3.6996   -3.3094 O   0  0  0  0  0  0  0  0  0  0  0  0
   -5.8710   -2.3955   -2.8584 O   0  0  0  0  0  0  0  0  0  0  0  0
   -3.9041    0.6155   -1.2223 O   0  0  0  0  0  0  0  0  0  0  0  0
    5.6256    0.4430    4.7880 O   0  0  0  0  0  0  0  0  0  0  0  0
    6.8588    3.1278    1.9018 H   0  0  0  0  0  0  0  0  0  0  0  0
    7.4157    2.2051    3.2769 H   0  0  0  0  0  0  0  0  0  0  0  0
    7.2992    3.9457    3.3815 H   0  0  0  0  0  0  0  0  0  0  0  0
    4.8502    3.7378    3.0575 H   0  0  0  0  0  0  0  0  0  0  0  0
    5.4261    2.9945    4.5306 H   0  0  0  0  0  0  0  0  0  0  0  0
    4.6832    1.7565    0.9652 H   0  0  0  0  0  0  0  0  0  0  0  0
    3.2214    2.1335    1.8459 H   0  0  0  0  0  0  0  0  0  0  0  0
    4.0855   -0.4325    0.9151 H   0  0  0  0  0  0  0  0  0  0  0  0
    1.8150    0.3356    2.7131 H   0  0  0  0  0  0  0  0  0  0  0  0
    1.9389   -1.1373    1.7807 H   0  0  0  0  0  0  0  0  0  0  0  0
    2.1019    0.9638   -0.0360 H   0  0  0  0  0  0  0  0  0  0  0  0
    0.2859    1.5920   -1.1653 H   0  0  0  0  0  0  0  0  0  0  0  0
   -1.8771    2.4034   -1.2613 H   0  0  0  0  0  0  0  0  0  0  0  0
   -2.1765    1.7525    0.3327 H   0  0  0  0  0  0  0  0  0  0  0  0
   -0.9800    0.0074   -2.7127 H   0  0  0  0  0  0  0  0  0  0  0  0
   -2.2373    1.0970   -3.2475 H   0  0  0  0  0  0  0  0  0  0  0  0
   -2.0899   -1.7260   -3.6246 H   0  0  0  0  0  0  0  0  0  0  0  0
   -3.3419   -0.6349   -4.1687 H   0  0  0  0  0  0  0  0  0  0  0  0
   -6.4963   -3.3545   -4.5679 H   0  0  0  0  0  0  0  0  0  0  0  0
   -7.7605   -2.9825   -3.4208 H   0  0  0  0  0  0  0  0  0  0  0  0
   -6.6432   -4.2869   -3.0977 H   0  0  0  0  0  0  0  0  0  0  0  0
   -3.5916   -2.4940   -0.3429 H   0  0  0  0  0  0  0  0  0  0  0  0
   -2.2331   -2.8093   -1.3961 H   0  0  0  0  0  0  0  0  0  0  0  0
   -2.4843   -0.7592    0.5680 H   0  0  0  0  0  0  0  0  0  0  0  0
   -1.1241   -1.0772   -0.4821 H   0  0  0  0  0  0  0  0  0  0  0  0
   -5.3487   -0.8310   -1.0493 H   0  0  0  0  0  0  0  0  0  0  0  0
   -5.2473   -0.0639   -2.6163 H   0  0  0  0  0  0  0  0  0  0  0  0
    3.5239   -0.9835    3.6635 H   0  0  0  0  0  0  0  0  0  0  0  0
    4.9821   -1.3572    2.7757 H   0  0  0  0  0  0  0  0  0  0  0  0
  1  2  1  0  0  0  0
  1 27  1  0  0  0  0
  1 28  1  0  0  0  0
  1 29  1  0  0  0  0
  2 19  1  0  0  0  0
  2 30  1  0  0  0  0
  2 31  1  0  0  0  0
  3 19  1  0  0  0  0
  3  4  1  0  0  0  0
  3 32  1  0  0  0  0
  3 33  1  0  0  0  0
  4  5  1  0  0  0  0
  4 17  1  0  0  0  0
  4 34  1  6  0  0  0
  5 20  1  0  0  0  0
  5 35  1  0  0  0  0
  5 36  1  0  0  0  0
  6 20  1  0  0  0  0
  6 21  1  0  0  0  0
  6 22  2  0  0  0  0
  7 21  1  0  0  0  0
  7 39  1  0  0  0  0
  7 40  1  0  0  0  0
  8  7  1  1  0  0  0
  8  9  1  0  0  0  0
  8 15  1  0  0  0  0
  8 25  1  0  0  0  0
  9 10  1  0  0  0  0
  9 41  1  0  0  0  0
  9 42  1  0  0  0  0
 10 11  1  0  0  0  0
 10 43  1  0  0  0  0
 10 44  1  0  0  0  0
 11 12  1  6  0  0  0
 11 14  1  0  0  0  0
 11 16  1  0  0  0  0
 12 24  1  0  0  0  0
 12 23  2  0  0  0  0
 13 24  1  0  0  0  0
 13 45  1  0  0  0  0
 13 46  1  0  0  0  0
 13 47  1  0  0  0  0
 14 15  1  0  0  0  0
 14 48  1  0  0  0  0
 14 49  1  0  0  0  0
 15 50  1  0  0  0  0
 15 51  1  0  0  0  0
 16 25  1  0  0  0  0
 16 52  1  0  0  0  0
 16 53  1  0  0  0  0
 17 18  1  0  0  0  0
 17 54  1  0  0  0  0
 17 55  1  0  0  0  0
 18 19  1  0  0  0  0
 18 26  2  0  0  0  0
 20 37  1  0  0  0  0
 21 38  1  0  0  0  0
M  END
>  <score>
0.44301259517669678

$$$$
Z4476098154
 OpenBabel08202115463D

 50 50  0  0  0  0  0  0  0  0999 V2000
   -1.1142    2.0284   -0.5719 C   0  0  0  0  0  0  0  0  0  0  0  0
   -0.3096    0.8998    0.0522 C   0  0  1  0  0  0  0  0  0  0  0  0
   -0.2824   -0.3258   -0.8151 C   0  0  0  0  0  0  0  0  0  0  0  0
   -1.6848   -1.8386   -2.0019 C   0  0  0  0  0  0  0  0  0  0  0  0
   -3.1205   -2.1897   -2.2628 C   0  0  0  0  0  0  0  0  0  0  0  0
   -3.6441   -3.3705   -1.7709 C   0  0  0  0  0  0  0  0  0  0  0  0
   -4.9716   -3.6915   -2.0078 C   0  0  0  0  0  0  0  0  0  0  0  0
   -5.7702   -2.8337   -2.7403 C   0  0  0  0  0  0  0  0  0  0  0  0
   -5.2449   -1.6495   -3.2336 C   0  0  0  0  0  0  0  0  0  0  0  0
   -7.2004   -1.0362   -4.2966 C   0  0  0  0  0  0  0  0  0  0  0  0
   -3.9213   -1.3292   -2.9976 C   0  0  0  0  0  0  0  0  0  0  0  0
    1.5123    1.4537    1.6275 C   0  0  0  0  0  0  0  0  0  0  0  0
    3.4632    2.0502    2.9760 C   0  0  0  0  0  0  0  0  0  0  0  0
    4.9665    2.2123    2.8211 C   0  0  1  0  0  0  0  0  0  0  0  0
    5.6721    2.4419    4.1477 C   0  0  0  0  0  0  0  0  0  0  0  0
    5.2861   -0.5592    3.1573 C   0  0  0  0  0  0  0  0  0  0  0  0
   -1.6064   -0.6662   -1.2044 O   0  0  0  0  0  0  0  0  0  0  0  0
   -5.9289   -0.7317   -3.9572 O   0  0  0  0  0  0  0  0  0  0  0  0
    0.8215    1.2251    2.6068 O   0  0  0  0  0  0  0  0  0  0  0  0
    7.1266    0.9468    2.0788 O   0  0  0  0  0  0  0  0  0  0  0  0
    5.0809    0.5540    0.8053 O   0  0  0  0  0  0  0  0  0  0  0  0
   -7.7310    0.0608   -4.8393 F   0  0  0  0  0  0  0  0  0  0  0  0
   -7.9319   -1.2849   -3.1949 F   0  0  0  0  0  0  0  0  0  0  0  0
    1.0440    1.3441    0.3489 N   0  0  0  0  0  0  0  0  0  0  0  0
    2.7912    1.8328    1.7036 N   0  0  0  0  0  0  0  0  0  0  0  0
    5.7060    0.7833    2.0709 S   0  0  0  0  0  0  0  0  0  0  0  0
   -0.9940    2.9175    0.0112 H   0  0  0  0  0  0  0  0  0  0  0  0
   -2.1487    1.7564   -0.5980 H   0  0  0  0  0  0  0  0  0  0  0  0
   -0.7662    2.2056   -1.5680 H   0  0  0  0  0  0  0  0  0  0  0  0
   -0.7838    0.6347    0.9740 H   0  0  0  0  0  0  0  0  0  0  0  0
    0.1477   -1.1388   -0.2684 H   0  0  0  0  0  0  0  0  0  0  0  0
    0.3059   -0.1312   -1.6874 H   0  0  0  0  0  0  0  0  0  0  0  0
   -1.2104   -2.6484   -1.4881 H   0  0  0  0  0  0  0  0  0  0  0  0
   -1.1877   -1.6666   -2.9336 H   0  0  0  0  0  0  0  0  0  0  0  0
   -3.0422   -4.0179   -1.2231 H   0  0  0  0  0  0  0  0  0  0  0  0
   -5.3668   -4.5780   -1.6342 H   0  0  0  0  0  0  0  0  0  0  0  0
   -6.7651   -3.0766   -2.9214 H   0  0  0  0  0  0  0  0  0  0  0  0
   -7.2310   -1.8621   -4.9762 H   0  0  0  0  0  0  0  0  0  0  0  0
   -3.5261   -0.4427   -3.3711 H   0  0  0  0  0  0  0  0  0  0  0  0
    1.6404    1.5727   -0.3944 H   0  0  0  0  0  0  0  0  0  0  0  0
    3.2942    1.9691    0.8737 H   0  0  0  0  0  0  0  0  0  0  0  0
    3.2725    1.2112    3.6122 H   0  0  0  0  0  0  0  0  0  0  0  0
    3.0673    2.9367    3.4258 H   0  0  0  0  0  0  0  0  0  0  0  0
    5.1693    3.0325    2.1646 H   0  0  0  0  0  0  0  0  0  0  0  0
    5.2677    3.3118    4.6215 H   0  0  0  0  0  0  0  0  0  0  0  0
    6.7185    2.5840    3.9750 H   0  0  0  0  0  0  0  0  0  0  0  0
    5.5269    1.5913    4.7805 H   0  0  0  0  0  0  0  0  0  0  0  0
    5.6855   -0.3687    4.1315 H   0  0  0  0  0  0  0  0  0  0  0  0
    5.6984   -1.4695    2.7748 H   0  0  0  0  0  0  0  0  0  0  0  0
    4.2216   -0.6477    3.2196 H   0  0  0  0  0  0  0  0  0  0  0  0
  1  2  1  0  0  0  0
  1 27  1  0  0  0  0
  1 28  1  0  0  0  0
  1 29  1  0  0  0  0
  2  3  1  0  0  0  0
  2 24  1  0  0  0  0
  2 30  1  1  0  0  0
  3 17  1  0  0  0  0
  3 31  1  0  0  0  0
  3 32  1  0  0  0  0
  4 17  1  0  0  0  0
  4  5  1  0  0  0  0
  4 33  1  0  0  0  0
  4 34  1  0  0  0  0
  5 11  1  0  0  0  0
  5  6  2  0  0  0  0
  6  7  1  0  0  0  0
  6 35  1  0  0  0  0
  7 36  1  0  0  0  0
  7  8  2  0  0  0  0
  8  9  1  0  0  0  0
  8 37  1  0  0  0  0
  9 18  1  0  0  0  0
  9 11  2  0  0  0  0
 10 18  1  0  0  0  0
 10 22  1  0  0  0  0
 10 23  1  0  0  0  0
 10 38  1  0  0  0  0
 11 39  1  0  0  0  0
 12 24  1  0  0  0  0
 12 25  1  0  0  0  0
 12 19  2  0  0  0  0
 13 25  1  0  0  0  0
 13 14  1  0  0  0  0
 13 42  1  0  0  0  0
 13 43  1  0  0  0  0
 14 15  1  0  0  0  0
 14 44  1  6  0  0  0
 15 45  1  0  0  0  0
 15 46  1  0  0  0  0
 15 47  1  0  0  0  0
 16 48  1  0  0  0  0
 16 49  1  0  0  0  0
 16 50  1  0  0  0  0
 24 40  1  0  0  0  0
 25 41  1  0  0  0  0
 26 14  1  0  0  0  0
 26 16  1  0  0  0  0
 26 20  2  0  0  0  0
 26 21  2  0  0  0  0
M  END
>  <score>
0.44306355714797974

$$$$
Z4319350960
 OpenBabel08202115463D

 48 48  0  0  0  0  0  0  0  0999 V2000
    0.5759   -0.5547    1.1016 C   0  0  0  0  0  0  0  0  0  0  0  0
    0.2871    0.9183    0.8622 C   0  0  1  0  0  0  0  0  0  0  0  0
    1.5530    1.7170    0.5973 C   0  0  0  0  0  0  0  0  0  0  0  0
    2.5794    1.7115    1.7288 C   0  0  0  0  0  0  0  0  0  0  0  0
    4.8943    1.2734    2.2828 C   0  0  0  0  0  0  0  0  0  0  0  0
    6.2055    0.9278    1.5960 C   0  0  0  0  0  0  0  0  0  0  0  0
    4.4987    0.2561    3.3406 C   0  0  0  0  0  0  0  0  0  0  0  0
    4.9415    2.6752    2.8686 C   0  0  0  0  0  0  0  0  0  0  0  0
   -1.3880    0.0541   -0.7111 C   0  0  0  0  0  0  0  0  0  0  0  0
   -2.2832    0.4333   -1.8747 C   0  0  1  0  0  0  0  0  0  0  0  0
   -2.1759   -0.3026   -3.1769 C   0  0  0  0  0  0  0  0  0  0  0  0
   -3.3820   -0.4846   -2.3096 C   0  0  1  0  0  0  0  0  0  0  0  0
   -3.8373   -1.7552   -1.6456 C   0  0  0  0  0  0  0  0  0  0  0  0
   -6.3013   -1.6915   -1.9322 C   0  0  0  0  0  0  0  0  0  0  0  0
   -4.9590   -3.3928   -3.0859 C   0  0  0  0  0  0  0  0  0  0  0  0
    2.2898    1.8884    2.8769 O   0  0  0  0  0  0  0  0  0  0  0  0
    3.8162    1.3970    1.2757 O   0  0  0  0  0  0  0  0  0  0  0  0
   -1.3574   -1.0933   -0.2682 O   0  0  0  0  0  0  0  0  0  0  0  0
   -0.6560    1.0798   -0.2343 N   0  0  0  0  0  0  0  0  0  0  0  0
   -5.0298   -2.3584   -2.2347 N   0  0  0  0  0  0  0  0  0  0  0  0
    1.5234   -0.6586    1.5876 H   0  0  0  0  0  0  0  0  0  0  0  0
    0.5975   -1.0706    0.1644 H   0  0  0  0  0  0  0  0  0  0  0  0
   -0.1902   -0.9719    1.7213 H   0  0  0  0  0  0  0  0  0  0  0  0
   -0.1632    1.3092    1.7506 H   0  0  0  0  0  0  0  0  0  0  0  0
    1.2701    2.7323    0.4132 H   0  0  0  0  0  0  0  0  0  0  0  0
    2.0217    1.3129   -0.2755 H   0  0  0  0  0  0  0  0  0  0  0  0
    6.5037   -0.0618    1.8728 H   0  0  0  0  0  0  0  0  0  0  0  0
    6.9599    1.6245    1.8968 H   0  0  0  0  0  0  0  0  0  0  0  0
    6.0761    0.9775    0.5351 H   0  0  0  0  0  0  0  0  0  0  0  0
    4.2907   -0.6834    2.8726 H   0  0  0  0  0  0  0  0  0  0  0  0
    3.6256    0.5986    3.8557 H   0  0  0  0  0  0  0  0  0  0  0  0
    5.3011    0.1369    4.0383 H   0  0  0  0  0  0  0  0  0  0  0  0
    3.9640    2.9566    3.2007 H   0  0  0  0  0  0  0  0  0  0  0  0
    5.2754    3.3632    2.1202 H   0  0  0  0  0  0  0  0  0  0  0  0
    5.6182    2.6927    3.6972 H   0  0  0  0  0  0  0  0  0  0  0  0
   -0.7623    1.9655   -0.6401 H   0  0  0  0  0  0  0  0  0  0  0  0
   -2.4998    1.4780   -1.9566 H   0  0  0  0  0  0  0  0  0  0  0  0
   -1.4694   -1.0989   -3.2849 H   0  0  0  0  0  0  0  0  0  0  0  0
   -2.2571    0.2306   -4.1011 H   0  0  0  0  0  0  0  0  0  0  0  0
   -4.2180    0.0649   -2.6890 H   0  0  0  0  0  0  0  0  0  0  0  0
   -4.0462   -1.5382   -0.6189 H   0  0  0  0  0  0  0  0  0  0  0  0
   -3.0401   -2.4665   -1.7053 H   0  0  0  0  0  0  0  0  0  0  0  0
   -6.9882   -1.8504   -2.7372 H   0  0  0  0  0  0  0  0  0  0  0  0
   -6.1330   -0.6420   -1.8092 H   0  0  0  0  0  0  0  0  0  0  0  0
   -6.7101   -2.0959   -1.0299 H   0  0  0  0  0  0  0  0  0  0  0  0
   -4.1481   -3.2399   -3.7671 H   0  0  0  0  0  0  0  0  0  0  0  0
   -5.8753   -3.4671   -3.6335 H   0  0  0  0  0  0  0  0  0  0  0  0
   -4.7971   -4.2964   -2.5362 H   0  0  0  0  0  0  0  0  0  0  0  0
  1  2  1  0  0  0  0
  1 21  1  0  0  0  0
  1 22  1  0  0  0  0
  1 23  1  0  0  0  0
  2  3  1  0  0  0  0
  2 19  1  0  0  0  0
  2 24  1  1  0  0  0
  3  4  1  0  0  0  0
  3 25  1  0  0  0  0
  3 26  1  0  0  0  0
  4 17  1  0  0  0  0
  4 16  2  0  0  0  0
  5 17  1  0  0  0  0
  5  6  1  0  0  0  0
  5  7  1  0  0  0  0
  5  8  1  0  0  0  0
  6 27  1  0  0  0  0
  6 28  1  0  0  0  0
  6 29  1  0  0  0  0
  7 30  1  0  0  0  0
  7 31  1  0  0  0  0
  7 32  1  0  0  0  0
  8 33  1  0  0  0  0
  8 34  1  0  0  0  0
  8 35  1  0  0  0  0
  9 19  1  0  0  0  0
  9 10  1  0  0  0  0
  9 18  2  0  0  0  0
 10 11  1  0  0  0  0
 10 12  1  0  0  0  0
 10 37  1  6  0  0  0
 11 12  1  0  0  0  0
 11 38  1  0  0  0  0
 11 39  1  0  0  0  0
 12 13  1  0  0  0  0
 12 40  1  6  0  0  0
 13 20  1  0  0  0  0
 13 41  1  0  0  0  0
 13 42  1  0  0  0  0
 14 20  1  0  0  0  0
 14 43  1  0  0  0  0
 14 44  1  0  0  0  0
 14 45  1  0  0  0  0
 15 20  1  0  0  0  0
 15 46  1  0  0  0  0
 15 47  1  0  0  0  0
 15 48  1  0  0  0  0
 19 36  1  0  0  0  0
M  END
>  <score>
0.44308942556381226

$$$$
PV-003927998065
 OpenBabel08202115463D

 58 60  0  0  0  0  0  0  0  0999 V2000
   -6.3684   -2.1333   -5.3389 C   0  0  0  0  0  0  0  0  0  0  0  0
   -6.6254   -2.4318   -3.8708 C   0  0  0  0  0  0  0  0  0  0  0  0
   -7.4638   -3.6726   -3.6642 C   0  0  0  0  0  0  0  0  0  0  0  0
   -7.2493   -1.2333   -3.1745 C   0  0  0  0  0  0  0  0  0  0  0  0
   -4.5553   -1.5100   -3.1856 C   0  0  0  0  0  0  0  0  0  0  0  0
   -3.4459   -1.6818   -2.1803 C   0  0  0  0  0  0  0  0  0  0  0  0
   -2.5509   -0.4585   -2.0666 C   0  0  0  0  0  0  0  0  0  0  0  0
   -1.4400   -0.6279   -1.0484 C   0  0  0  0  0  0  0  0  0  0  0  0
    0.4433    0.3891    0.0897 C   0  0  2  0  0  0  0  0  0  0  0  0
    0.4201    1.4130    1.2633 C   0  0  0  0  0  0  0  0  0  0  0  0
    1.8922    1.7969    0.9644 C   0  0  2  0  0  0  0  0  0  0  0  0
    4.1884    1.3393    1.6702 C   0  0  0  0  0  0  0  0  0  0  0  0
    5.0464    0.8092    2.7532 C   0  0  0  0  0  0  0  0  0  0  0  0
    4.8151    1.7119    3.9627 C   0  0  0  0  0  0  0  0  0  0  0  0
    5.3515    3.1579    3.8039 C   0  0  0  0  0  0  0  0  0  0  0  0
    6.6187    2.7840    4.6289 C   0  0  0  0  0  0  0  0  0  0  0  0
    5.8505    1.5350    5.1154 C   0  0  0  0  0  0  0  0  0  0  0  0
    6.3447    0.1359    2.4213 C   0  0  0  0  0  0  0  0  0  0  0  0
    5.1906   -0.6696    2.9304 C   0  0  0  0  0  0  0  0  0  0  0  0
    1.7109    1.1082   -0.4230 C   0  0  0  0  0  0  0  0  0  0  0  0
   -5.3767   -2.5649   -3.1741 O   0  0  0  0  0  0  0  0  0  0  0  0
   -4.6976   -0.5639   -3.9053 O   0  0  0  0  0  0  0  0  0  0  0  0
   -1.2440   -1.7053   -0.4923 O   0  0  0  0  0  0  0  0  0  0  0  0
    4.6721    1.9010    0.6909 O   0  0  0  0  0  0  0  0  0  0  0  0
   -0.7008    0.4657   -0.8044 N   0  0  0  0  0  0  0  0  0  0  0  0
    2.8738    1.1651    1.8333 N   0  0  0  0  0  0  0  0  0  0  0  0
   -5.8276   -2.9449   -5.7790 H   0  0  0  0  0  0  0  0  0  0  0  0
   -5.7944   -1.2344   -5.4247 H   0  0  0  0  0  0  0  0  0  0  0  0
   -7.3023   -2.0105   -5.8465 H   0  0  0  0  0  0  0  0  0  0  0  0
   -7.7038   -3.7727   -2.6263 H   0  0  0  0  0  0  0  0  0  0  0  0
   -6.9142   -4.5319   -3.9874 H   0  0  0  0  0  0  0  0  0  0  0  0
   -8.3667   -3.5915   -4.2326 H   0  0  0  0  0  0  0  0  0  0  0  0
   -8.1368   -0.9398   -3.6952 H   0  0  0  0  0  0  0  0  0  0  0  0
   -6.5530   -0.4209   -3.1710 H   0  0  0  0  0  0  0  0  0  0  0  0
   -7.4973   -1.4956   -2.1673 H   0  0  0  0  0  0  0  0  0  0  0  0
   -2.8454   -2.5169   -2.4752 H   0  0  0  0  0  0  0  0  0  0  0  0
   -3.8813   -1.8755   -1.2223 H   0  0  0  0  0  0  0  0  0  0  0  0
   -3.1525    0.3780   -1.7782 H   0  0  0  0  0  0  0  0  0  0  0  0
   -2.1102   -0.2688   -3.0230 H   0  0  0  0  0  0  0  0  0  0  0  0
   -0.9327    1.3176   -1.2299 H   0  0  0  0  0  0  0  0  0  0  0  0
    0.5966   -0.6272    0.3874 H   0  0  0  0  0  0  0  0  0  0  0  0
   -0.2756    2.2148    1.1286 H   0  0  0  0  0  0  0  0  0  0  0  0
    0.2720    0.9696    2.2258 H   0  0  0  0  0  0  0  0  0  0  0  0
    2.0795    2.8495    0.9200 H   0  0  0  0  0  0  0  0  0  0  0  0
    2.5597    0.5918    2.5635 H   0  0  0  0  0  0  0  0  0  0  0  0
    3.7914    1.6457    4.2672 H   0  0  0  0  0  0  0  0  0  0  0  0
    5.5571    3.4379    2.7919 H   0  0  0  0  0  0  0  0  0  0  0  0
    4.7368    3.9037    4.2630 H   0  0  0  0  0  0  0  0  0  0  0  0
    7.4873    2.5726    4.0410 H   0  0  0  0  0  0  0  0  0  0  0  0
    6.8705    3.4814    5.4004 H   0  0  0  0  0  0  0  0  0  0  0  0
    5.4326    1.6351    6.0953 H   0  0  0  0  0  0  0  0  0  0  0  0
    6.4145    0.6274    5.0586 H   0  0  0  0  0  0  0  0  0  0  0  0
    7.2025    0.2928    3.0413 H   0  0  0  0  0  0  0  0  0  0  0  0
    6.6535    0.0427    1.4011 H   0  0  0  0  0  0  0  0  0  0  0  0
    4.6754   -1.3393    2.2739 H   0  0  0  0  0  0  0  0  0  0  0  0
    5.2244   -1.0892    3.9141 H   0  0  0  0  0  0  0  0  0  0  0  0
    1.5293    1.7902   -1.2273 H   0  0  0  0  0  0  0  0  0  0  0  0
    2.5092    0.4471   -0.6886 H   0  0  0  0  0  0  0  0  0  0  0  0
  1  2  1  0  0  0  0
  1 27  1  0  0  0  0
  1 28  1  0  0  0  0
  1 29  1  0  0  0  0
  2  3  1  0  0  0  0
  2  4  1  0  0  0  0
  2 21  1  0  0  0  0
  3 30  1  0  0  0  0
  3 31  1  0  0  0  0
  3 32  1  0  0  0  0
  4 33  1  0  0  0  0
  4 34  1  0  0  0  0
  4 35  1  0  0  0  0
  5 21  1  0  0  0  0
  5  6  1  0  0  0  0
  5 22  2  0  0  0  0
  6  7  1  0  0  0  0
  6 36  1  0  0  0  0
  6 37  1  0  0  0  0
  7  8  1  0  0  0  0
  7 38  1  0  0  0  0
  7 39  1  0  0  0  0
  8 25  1  0  0  0  0
  8 23  2  0  0  0  0
  9 25  1  0  0  0  0
  9 10  1  0  0  0  0
  9 20  1  0  0  0  0
  9 41  1  1  0  0  0
 10 11  1  0  0  0  0
 10 42  1  0  0  0  0
 10 43  1  0  0  0  0
 11 26  1  0  0  0  0
 11 20  1  0  0  0  0
 11 44  1  6  0  0  0
 12 26  1  0  0  0  0
 12 13  1  0  0  0  0
 12 24  2  0  0  0  0
 13 14  1  0  0  0  0
 13 18  1  0  0  0  0
 13 19  1  0  0  0  0
 14 15  1  0  0  0  0
 14 17  1  0  0  0  0
 14 46  1  0  0  0  0
 15 16  1  0  0  0  0
 15 47  1  0  0  0  0
 15 48  1  0  0  0  0
 16 17  1  0  0  0  0
 16 49  1  0  0  0  0
 16 50  1  0  0  0  0
 17 51  1  0  0  0  0
 17 52  1  0  0  0  0
 18 19  1  0  0  0  0
 18 53  1  0  0  0  0
 18 54  1  0  0  0  0
 19 55  1  0  0  0  0
 19 56  1  0  0  0  0
 20 57  1  0  0  0  0
 20 58  1  0  0  0  0
 25 40  1  0  0  0  0
 26 45  1  0  0  0  0
M  END
>  <score>
0.44318807125091553

$$$$
PV-003931213430
 OpenBabel08202115463D

 50 53  0  0  0  0  0  0  0  0999 V2000
    6.1595    2.2988    2.0344 C   0  0  0  0  0  0  0  0  0  0  0  0
    5.2880    1.6199    3.0779 C   0  0  0  0  0  0  0  0  0  0  0  0
    5.3238    2.5059    4.3433 C   0  0  0  0  0  0  0  0  0  0  0  0
    5.8437    0.2616    3.4566 C   0  0  0  0  0  0  0  0  0  0  0  0
    3.8770    1.5134    2.6381 C   0  0  0  0  0  0  0  0  0  0  0  0
    1.7702    1.6133    2.3466 C   0  0  0  0  0  0  0  0  0  0  0  0
    2.2607    0.8413    1.3535 C   0  0  0  0  0  0  0  0  0  0  0  0
    1.6700    0.1062    0.1902 C   0  0  0  0  0  0  0  0  0  0  0  0
   -0.5060    1.2233    0.6832 C   0  0  0  0  0  0  0  0  0  0  0  0
   -1.8736    0.8877    0.0969 C   0  0  0  0  0  0  0  0  0  0  0  0
   -1.5839    0.7052   -1.3886 C   0  0  2  0  0  0  0  0  0  0  0  0
   -2.6454   -0.1327   -2.0398 C   0  0  0  0  0  0  0  0  0  0  0  0
   -3.5353   -1.0084   -1.4692 C   0  0  0  0  0  0  0  0  0  0  0  0
   -5.4001   -2.4124   -2.4513 C   0  0  1  0  0  0  0  0  0  0  0  0
   -6.4046   -2.2530   -3.6085 C   0  0  0  0  0  0  0  0  0  0  0  0
   -5.7307   -3.3964   -4.3578 C   0  0  0  0  0  0  0  0  0  0  0  0
   -5.1167   -3.8480   -3.0203 C   0  0  1  0  0  0  0  0  0  0  0  0
   -0.2284   -0.0129   -1.4185 C   0  0  0  0  0  0  0  0  0  0  0  0
    2.8043    2.0385    3.1623 N   0  0  0  0  0  0  0  0  0  0  0  0
    0.4034    0.4159   -0.1576 N   0  0  0  0  0  0  0  0  0  0  0  0
   -4.2571   -1.4948   -2.4969 N   0  0  0  0  0  0  0  0  0  0  0  0
   -3.8518   -0.9507   -3.6629 N   0  0  0  0  0  0  0  0  0  0  0  0
   -2.8741   -0.1260   -3.3861 N   0  0  0  0  0  0  0  0  0  0  0  0
    2.3559   -0.6912   -0.4577 O   0  0  0  0  0  0  0  0  0  0  0  0
    3.6279    0.7671    1.5298 O   0  0  0  0  0  0  0  0  0  0  0  0
   -3.7513   -4.1868   -3.0915 F   0  0  0  0  0  0  0  0  0  0  0  0
    6.0482    1.7980    1.0954 H   0  0  0  0  0  0  0  0  0  0  0  0
    7.1834    2.2555    2.3423 H   0  0  0  0  0  0  0  0  0  0  0  0
    5.8607    3.3210    1.9308 H   0  0  0  0  0  0  0  0  0  0  0  0
    4.9841    3.4908    4.0995 H   0  0  0  0  0  0  0  0  0  0  0  0
    6.3259    2.5563    4.7149 H   0  0  0  0  0  0  0  0  0  0  0  0
    4.6861    2.0841    5.0919 H   0  0  0  0  0  0  0  0  0  0  0  0
    6.8926    0.3462    3.6504 H   0  0  0  0  0  0  0  0  0  0  0  0
    5.6842   -0.4257    2.6522 H   0  0  0  0  0  0  0  0  0  0  0  0
    5.3467   -0.0947    4.3346 H   0  0  0  0  0  0  0  0  0  0  0  0
    0.7667    1.8524    2.4786 H   0  0  0  0  0  0  0  0  0  0  0  0
   -0.4433    0.9329    1.7111 H   0  0  0  0  0  0  0  0  0  0  0  0
   -0.2917    2.2678    0.5934 H   0  0  0  0  0  0  0  0  0  0  0  0
   -2.2633   -0.0124    0.5246 H   0  0  0  0  0  0  0  0  0  0  0  0
   -2.5657    1.6879    0.2568 H   0  0  0  0  0  0  0  0  0  0  0  0
   -1.5231    1.6522   -1.8830 H   0  0  0  0  0  0  0  0  0  0  0  0
   -3.6313   -1.2451   -0.4611 H   0  0  0  0  0  0  0  0  0  0  0  0
   -5.8342   -2.3940   -1.4735 H   0  0  0  0  0  0  0  0  0  0  0  0
   -6.3464   -1.3093   -4.1095 H   0  0  0  0  0  0  0  0  0  0  0  0
   -7.4201   -2.4499   -3.3346 H   0  0  0  0  0  0  0  0  0  0  0  0
   -5.0161   -3.0856   -5.0911 H   0  0  0  0  0  0  0  0  0  0  0  0
   -6.4079   -4.1001   -4.7948 H   0  0  0  0  0  0  0  0  0  0  0  0
   -5.6542   -4.6323   -2.5294 H   0  0  0  0  0  0  0  0  0  0  0  0
   -0.3567   -1.0749   -1.4421 H   0  0  0  0  0  0  0  0  0  0  0  0
    0.3515    0.2958   -2.2631 H   0  0  0  0  0  0  0  0  0  0  0  0
  1  2  1  0  0  0  0
  1 27  1  0  0  0  0
  1 28  1  0  0  0  0
  1 29  1  0  0  0  0
  2  3  1  0  0  0  0
  2  4  1  0  0  0  0
  2  5  1  0  0  0  0
  3 30  1  0  0  0  0
  3 31  1  0  0  0  0
  3 32  1  0  0  0  0
  4 33  1  0  0  0  0
  4 34  1  0  0  0  0
  4 35  1  0  0  0  0
  5 25  1  0  0  0  0
  5 19  2  0  0  0  0
  6 19  1  0  0  0  0
  6 36  1  0  0  0  0
  6  7  2  0  0  0  0
  7  8  1  0  0  0  0
  7 25  1  0  0  0  0
  8 20  1  0  0  0  0
  8 24  2  0  0  0  0
  9 20  1  0  0  0  0
  9 10  1  0  0  0  0
  9 37  1  0  0  0  0
  9 38  1  0  0  0  0
 10 11  1  0  0  0  0
 10 39  1  0  0  0  0
 10 40  1  0  0  0  0
 11 12  1  0  0  0  0
 11 18  1  0  0  0  0
 11 41  1  6  0  0  0
 12 23  1  0  0  0  0
 12 13  2  0  0  0  0
 13 21  1  0  0  0  0
 13 42  1  0  0  0  0
 14 21  1  0  0  0  0
 14 15  1  0  0  0  0
 14 17  1  0  0  0  0
 14 43  1  1  0  0  0
 15 16  1  0  0  0  0
 15 44  1  0  0  0  0
 15 45  1  0  0  0  0
 16 17  1  0  0  0  0
 16 46  1  0  0  0  0
 16 47  1  0  0  0  0
 17 26  1  0  0  0  0
 17 48  1  1  0  0  0
 18 20  1  0  0  0  0
 18 49  1  0  0  0  0
 18 50  1  0  0  0  0
 21 22  1  0  0  0  0
 22 23  2  0  0  0  0
M  END
>  <score>
0.44330501556396484

$$$$
Z4621153681
 OpenBabel08202115463D

 48 48  0  0  0  0  0  0  0  0999 V2000
    6.5259    1.3094    3.7761 C   0  0  0  0  0  0  0  0  0  0  0  0
    5.3089    1.7263    2.9845 C   0  0  0  0  0  0  0  0  0  0  0  0
    4.3692    0.8453    2.5165 C   0  0  0  0  0  0  0  0  0  0  0  0
    4.4940   -0.6285    2.7599 C   0  0  0  0  0  0  0  0  0  0  0  0
    3.2883    1.3739    1.8023 C   0  0  0  0  0  0  0  0  0  0  0  0
    1.1566    1.0328    0.5981 C   0  0  0  0  0  0  0  0  0  0  0  0
   -0.9548    0.3712   -0.5548 C   0  0  0  0  0  0  0  0  0  0  0  0
   -0.6366    1.1522   -1.8220 C   0  0  0  0  0  0  0  0  0  0  0  0
   -1.9106    1.1635    0.3245 C   0  0  0  0  0  0  0  0  0  0  0  0
   -1.5882   -0.9640   -0.9211 C   0  0  0  0  0  0  0  0  0  0  0  0
   -2.8059   -0.7583   -1.7875 C   0  0  0  0  0  0  0  0  0  0  0  0
   -3.4226   -2.0155   -2.3503 C   0  0  0  0  0  0  0  0  0  0  0  0
   -5.6744   -1.2138   -2.1319 C   0  0  0  0  0  0  0  0  0  0  0  0
   -5.1782   -2.9975   -3.6610 C   0  0  0  0  0  0  0  0  0  0  0  0
    5.1166    3.0848    2.7055 C   0  0  0  0  0  0  0  0  0  0  0  0
    5.1609   -0.9066    3.8815 F   0  0  0  0  0  0  0  0  0  0  0  0
    5.1408   -1.2560    1.7764 F   0  0  0  0  0  0  0  0  0  0  0  0
    3.3067   -1.2313    2.8714 F   0  0  0  0  0  0  0  0  0  0  0  0
    2.2379    0.5987    1.2789 N   0  0  0  0  0  0  0  0  0  0  0  0
    0.3005    0.0930    0.1960 N   0  0  0  0  0  0  0  0  0  0  0  0
   -4.6780   -1.7541   -3.0637 N   0  0  0  0  0  0  0  0  0  0  0  0
    3.1507    2.6721    1.5485 N   0  0  0  0  0  0  0  0  0  0  0  0
    4.0787    3.5395    2.0083 N   0  0  0  0  0  0  0  0  0  0  0  0
    0.9564    2.2297    0.3529 O   0  0  0  0  0  0  0  0  0  0  0  0
    7.1366    2.1664    3.9700 H   0  0  0  0  0  0  0  0  0  0  0  0
    7.0871    0.5914    3.2153 H   0  0  0  0  0  0  0  0  0  0  0  0
    6.2162    0.8751    4.7036 H   0  0  0  0  0  0  0  0  0  0  0  0
    2.2982   -0.3684    1.4256 H   0  0  0  0  0  0  0  0  0  0  0  0
    0.5109   -0.8403    0.4082 H   0  0  0  0  0  0  0  0  0  0  0  0
    0.0099    0.5718   -2.4465 H   0  0  0  0  0  0  0  0  0  0  0  0
   -0.1519    2.0702   -1.5627 H   0  0  0  0  0  0  0  0  0  0  0  0
   -1.5443    1.3637   -2.3477 H   0  0  0  0  0  0  0  0  0  0  0  0
   -2.7703    1.2482   -0.3069 H   0  0  0  0  0  0  0  0  0  0  0  0
   -1.5096    2.1254    0.5673 H   0  0  0  0  0  0  0  0  0  0  0  0
   -2.1399    0.6343    1.2257 H   0  0  0  0  0  0  0  0  0  0  0  0
   -1.8770   -1.4728   -0.0252 H   0  0  0  0  0  0  0  0  0  0  0  0
   -0.8743   -1.5565   -1.4541 H   0  0  0  0  0  0  0  0  0  0  0  0
   -2.5241   -0.1332   -2.6090 H   0  0  0  0  0  0  0  0  0  0  0  0
   -3.5489   -0.2616   -1.1992 H   0  0  0  0  0  0  0  0  0  0  0  0
   -3.6201   -2.6913   -1.5446 H   0  0  0  0  0  0  0  0  0  0  0  0
   -2.7285   -2.4636   -3.0303 H   0  0  0  0  0  0  0  0  0  0  0  0
   -6.6008   -1.0651   -2.6463 H   0  0  0  0  0  0  0  0  0  0  0  0
   -5.3287   -0.2788   -1.7430 H   0  0  0  0  0  0  0  0  0  0  0  0
   -5.8204   -1.9034   -1.3269 H   0  0  0  0  0  0  0  0  0  0  0  0
   -4.2867   -3.3680   -4.1224 H   0  0  0  0  0  0  0  0  0  0  0  0
   -5.9456   -2.8076   -4.3821 H   0  0  0  0  0  0  0  0  0  0  0  0
   -5.5465   -3.6721   -2.9167 H   0  0  0  0  0  0  0  0  0  0  0  0
    5.8159    3.7686    3.0589 H   0  0  0  0  0  0  0  0  0  0  0  0
  1  2  1  0  0  0  0
  1 25  1  0  0  0  0
  1 26  1  0  0  0  0
  1 27  1  0  0  0  0
  2 15  1  0  0  0  0
  2  3  2  0  0  0  0
  3  4  1  0  0  0  0
  3  5  1  0  0  0  0
  4 16  1  0  0  0  0
  4 17  1  0  0  0  0
  4 18  1  0  0  0  0
  5 19  1  0  0  0  0
  5 22  2  0  0  0  0
  6 19  1  0  0  0  0
  6 20  1  0  0  0  0
  6 24  2  0  0  0  0
  7 20  1  0  0  0  0
  7  8  1  0  0  0  0
  7  9  1  0  0  0  0
  7 10  1  0  0  0  0
  8 30  1  0  0  0  0
  8 31  1  0  0  0  0
  8 32  1  0  0  0  0
  9 33  1  0  0  0  0
  9 34  1  0  0  0  0
  9 35  1  0  0  0  0
 10 11  1  0  0  0  0
 10 36  1  0  0  0  0
 10 37  1  0  0  0  0
 11 12  1  0  0  0  0
 11 38  1  0  0  0  0
 11 39  1  0  0  0  0
 12 21  1  0  0  0  0
 12 40  1  0  0  0  0
 12 41  1  0  0  0  0
 13 21  1  0  0  0  0
 13 42  1  0  0  0  0
 13 43  1  0  0  0  0
 13 44  1  0  0  0  0
 14 21  1  0  0  0  0
 14 45  1  0  0  0  0
 14 46  1  0  0  0  0
 14 47  1  0  0  0  0
 15 48  1  0  0  0  0
 15 23  2  0  0  0  0
 19 28  1  0  0  0  0
 20 29  1  0  0  0  0
 22 23  1  0  0  0  0
M  END
>  <score>
0.4433179497718811

$$$$
PV-004105027339
 OpenBabel08202115463D

 52 54  0  0  0  0  0  0  0  0999 V2000
   -3.1299   -2.4218   -1.4733 C   0  0  0  0  0  0  0  0  0  0  0  0
   -3.0345   -0.2934   -0.1986 C   0  0  0  0  0  0  0  0  0  0  0  0
   -1.5453   -0.0129   -0.3375 C   0  0  2  0  0  0  0  0  0  0  0  0
   -0.9234    0.4567    0.9593 C   0  0  0  0  0  0  0  0  0  0  0  0
    1.2960    1.1324    1.7564 C   0  0  0  0  0  0  0  0  0  0  0  0
    2.7388    1.3617    1.3798 C   0  0  0  0  0  0  0  0  0  0  0  0
    3.7018    1.1051    2.5275 C   0  0  1  0  0  0  0  0  0  0  0  0
    4.0402   -0.3775    2.7672 C   0  0  0  0  0  0  0  0  0  0  0  0
    5.2298   -0.1879    1.8086 C   0  0  0  0  0  0  0  0  0  0  0  0
    5.1786    1.2970    2.1806 C   0  0  0  0  0  0  0  0  0  0  0  0
    5.6251    2.3756    1.1929 C   0  0  0  0  0  0  0  0  0  0  0  0
    6.0139    3.2174    2.4218 C   0  0  0  0  0  0  0  0  0  0  0  0
    6.1578    1.8927    3.1928 C   0  0  0  0  0  0  0  0  0  0  0  0
   -4.3684   -0.4148   -2.2200 C   0  0  0  0  0  0  0  0  0  0  0  0
   -5.2228   -1.3529   -2.9892 C   0  0  0  0  0  0  0  0  0  0  0  0
   -6.2185   -0.8947   -3.8307 C   0  0  0  0  0  0  0  0  0  0  0  0
   -6.9845   -1.8174   -4.5189 C   0  0  0  0  0  0  0  0  0  0  0  0
   -6.7218   -3.1618   -4.3414 C   0  0  0  0  0  0  0  0  0  0  0  0
   -5.7029   -3.5328   -3.4816 C   0  0  0  0  0  0  0  0  0  0  0  0
   -3.5212   -1.0219   -1.3621 N   0  0  0  0  0  0  0  0  0  0  0  0
    0.5254    0.5986    0.8044 N   0  0  0  0  0  0  0  0  0  0  0  0
   -4.9554   -2.6493   -2.8048 N   0  0  0  0  0  0  0  0  0  0  0  0
   -1.3783    0.9934   -1.3487 O   0  0  0  0  0  0  0  0  0  0  0  0
    0.8738    1.4247    2.8745 O   0  0  0  0  0  0  0  0  0  0  0  0
   -4.4504    0.7965   -2.3743 O   0  0  0  0  0  0  0  0  0  0  0  0
   -7.4438   -4.0938   -4.9926 F   0  0  0  0  0  0  0  0  0  0  0  0
   -2.3225   -2.6216   -0.8003 H   0  0  0  0  0  0  0  0  0  0  0  0
   -2.8170   -2.6259   -2.4760 H   0  0  0  0  0  0  0  0  0  0  0  0
   -3.9632   -3.0456   -1.2254 H   0  0  0  0  0  0  0  0  0  0  0  0
   -3.2030   -0.8794    0.6807 H   0  0  0  0  0  0  0  0  0  0  0  0
   -3.5623    0.6338   -0.1164 H   0  0  0  0  0  0  0  0  0  0  0  0
   -1.0561   -0.9146   -0.6418 H   0  0  0  0  0  0  0  0  0  0  0  0
   -2.0412    1.6779   -1.2321 H   0  0  0  0  0  0  0  0  0  0  0  0
   -1.1279   -0.2586    1.7283 H   0  0  0  0  0  0  0  0  0  0  0  0
   -1.3438    1.4026    1.2303 H   0  0  0  0  0  0  0  0  0  0  0  0
    0.9446    0.2915   -0.0264 H   0  0  0  0  0  0  0  0  0  0  0  0
    2.8505    2.3773    1.0621 H   0  0  0  0  0  0  0  0  0  0  0  0
    2.9885    0.7053    0.5725 H   0  0  0  0  0  0  0  0  0  0  0  0
    3.3721    1.6362    3.3959 H   0  0  0  0  0  0  0  0  0  0  0  0
    4.3119   -0.6164    3.7742 H   0  0  0  0  0  0  0  0  0  0  0  0
    3.2963   -1.0663    2.4250 H   0  0  0  0  0  0  0  0  0  0  0  0
    6.1266   -0.6933    2.1003 H   0  0  0  0  0  0  0  0  0  0  0  0
    5.0175   -0.4011    0.7818 H   0  0  0  0  0  0  0  0  0  0  0  0
    4.8399    2.7897    0.5955 H   0  0  0  0  0  0  0  0  0  0  0  0
    6.4437    2.0962    0.5631 H   0  0  0  0  0  0  0  0  0  0  0  0
    6.9223    3.7725    2.3140 H   0  0  0  0  0  0  0  0  0  0  0  0
    5.2413    3.8634    2.7835 H   0  0  0  0  0  0  0  0  0  0  0  0
    5.8003    1.9191    4.2010 H   0  0  0  0  0  0  0  0  0  0  0  0
    7.1388    1.4661    3.1728 H   0  0  0  0  0  0  0  0  0  0  0  0
   -6.3885    0.1250   -3.9443 H   0  0  0  0  0  0  0  0  0  0  0  0
   -7.7435   -1.5053   -5.1577 H   0  0  0  0  0  0  0  0  0  0  0  0
   -5.5074   -4.5463   -3.3543 H   0  0  0  0  0  0  0  0  0  0  0  0
  1 20  1  0  0  0  0
  1 27  1  0  0  0  0
  1 28  1  0  0  0  0
  1 29  1  0  0  0  0
  2 20  1  0  0  0  0
  2  3  1  0  0  0  0
  2 30  1  0  0  0  0
  2 31  1  0  0  0  0
  3 23  1  0  0  0  0
  3  4  1  0  0  0  0
  3 32  1  6  0  0  0
  4 21  1  0  0  0  0
  4 34  1  0  0  0  0
  4 35  1  0  0  0  0
  5 21  1  0  0  0  0
  5  6  1  0  0  0  0
  5 24  2  0  0  0  0
  6  7  1  0  0  0  0
  6 37  1  0  0  0  0
  6 38  1  0  0  0  0
  7  8  1  0  0  0  0
  7 10  1  0  0  0  0
  7 39  1  1  0  0  0
  8  9  1  0  0  0  0
  8 40  1  0  0  0  0
  8 41  1  0  0  0  0
  9 10  1  0  0  0  0
  9 42  1  0  0  0  0
  9 43  1  0  0  0  0
 10 11  1  0  0  0  0
 10 13  1  0  0  0  0
 11 12  1  0  0  0  0
 11 44  1  0  0  0  0
 11 45  1  0  0  0  0
 12 13  1  0  0  0  0
 12 46  1  0  0  0  0
 12 47  1  0  0  0  0
 13 48  1  0  0  0  0
 13 49  1  0  0  0  0
 14 20  1  0  0  0  0
 14 15  1  0  0  0  0
 14 25  2  0  0  0  0
 15 22  1  0  0  0  0
 15 16  2  0  0  0  0
 16 17  1  0  0  0  0
 16 50  1  0  0  0  0
 17 51  1  0  0  0  0
 17 18  2  0  0  0  0
 18 26  1  0  0  0  0
 18 19  1  0  0  0  0
 19 52  1  0  0  0  0
 19 22  2  0  0  0  0
 21 36  1  0  0  0  0
 23 33  1  0  0  0  0
M  END
>  <score>
0.44331985712051392

$$$$
PV-003954837751
 OpenBabel08202115463D

 54 57  0  0  0  0  0  0  0  0999 V2000
   -5.3102   -0.5852   -1.3550 O   0  0  0  0  0  0  0  0  0  0  0  0
    3.5773    1.6827   -0.9292 O   0  0  0  0  0  0  0  0  0  0  0  0
    6.1190   -0.6844    3.3229 O   0  0  0  0  0  0  0  0  0  0  0  0
   -4.4465   -1.3126   -1.8427 C   0  0  0  0  0  0  0  0  0  0  0  0
   -4.8084   -2.6077   -2.5261 C   0  0  0  0  0  0  0  0  0  0  0  0
   -6.9434   -2.3699   -3.8875 C   0  0  0  0  0  0  0  0  0  0  0  0
   -8.2419   -2.7729   -3.6848 C   0  0  0  0  0  0  0  0  0  0  0  0
   -8.2359   -3.4251   -2.4443 C   0  0  0  0  0  0  0  0  0  0  0  0
   -2.6780    0.1538   -1.0827 C   0  0  0  0  0  0  0  0  0  0  0  0
   -1.1754    0.2869   -1.1015 C   0  0  0  0  0  0  0  0  0  0  0  0
   -0.6790    1.5927   -0.5045 C   0  0  1  0  0  0  0  0  0  0  0  0
   -0.5517    1.4810    1.0072 C   0  0  0  0  0  0  0  0  0  0  0  0
    0.7808    0.7758    1.1864 C   0  0  0  0  0  0  0  0  0  0  0  0
    2.9447    1.2121    0.0025 C   0  0  0  0  0  0  0  0  0  0  0  0
    3.5628    0.4994    1.1784 C   0  0  1  0  0  0  0  0  0  0  0  0
    5.1070    0.3612    0.9986 C   0  0  0  0  0  0  0  0  0  0  0  0
    5.6507    1.3870    2.0744 C   0  0  1  0  0  0  0  0  0  0  0  0
    4.4981    2.4204    2.2427 C   0  0  0  0  0  0  0  0  0  0  0  0
    4.5710    0.8748    2.2335 C   0  0  1  0  0  0  0  0  0  0  0  0
    3.9978    0.5085    3.6107 C   0  0  0  0  0  0  0  0  0  0  0  0
    5.5245    0.6107    3.4188 C   0  0  1  0  0  0  0  0  0  0  0  0
    0.7433    1.8998   -0.9776 C   0  0  0  0  0  0  0  0  0  0  0  0
   -6.2336   -2.7768   -2.8084 N   0  0  0  0  0  0  0  0  0  0  0  0
   -7.0135   -3.4234   -1.9045 N   0  0  0  0  0  0  0  0  0  0  0  0
   -3.1435   -1.0196   -1.8070 N   0  0  0  0  0  0  0  0  0  0  0  0
    1.5820    1.2904    0.0664 N   0  0  0  0  0  0  0  0  0  0  0  0
   -4.4962   -3.4144   -1.8962 H   0  0  0  0  0  0  0  0  0  0  0  0
   -4.2779   -2.6533   -3.4542 H   0  0  0  0  0  0  0  0  0  0  0  0
   -6.5766   -1.8519   -4.7114 H   0  0  0  0  0  0  0  0  0  0  0  0
   -9.0547   -2.6254   -4.3167 H   0  0  0  0  0  0  0  0  0  0  0  0
   -9.0734   -3.8543   -2.0017 H   0  0  0  0  0  0  0  0  0  0  0  0
   -2.4998   -1.5959   -2.2694 H   0  0  0  0  0  0  0  0  0  0  0  0
   -3.0031    0.0803   -0.0660 H   0  0  0  0  0  0  0  0  0  0  0  0
   -3.1051    1.0258   -1.5322 H   0  0  0  0  0  0  0  0  0  0  0  0
   -0.8424    0.2298   -2.1167 H   0  0  0  0  0  0  0  0  0  0  0  0
   -0.7561   -0.5230   -0.5419 H   0  0  0  0  0  0  0  0  0  0  0  0
   -1.3472    2.3844   -0.7717 H   0  0  0  0  0  0  0  0  0  0  0  0
   -1.3517    0.9016    1.4186 H   0  0  0  0  0  0  0  0  0  0  0  0
   -0.5394    2.4483    1.4645 H   0  0  0  0  0  0  0  0  0  0  0  0
    1.2263    1.0290    2.1258 H   0  0  0  0  0  0  0  0  0  0  0  0
    0.6656   -0.2860    1.1204 H   0  0  0  0  0  0  0  0  0  0  0  0
    3.1038   -0.4600    1.2960 H   0  0  0  0  0  0  0  0  0  0  0  0
    5.4361   -0.6350    1.2090 H   0  0  0  0  0  0  0  0  0  0  0  0
    5.4103    0.6361    0.0100 H   0  0  0  0  0  0  0  0  0  0  0  0
    6.6160    1.7987    1.8654 H   0  0  0  0  0  0  0  0  0  0  0  0
    4.6159    3.0531    3.0975 H   0  0  0  0  0  0  0  0  0  0  0  0
    4.3361    3.0218    1.3727 H   0  0  0  0  0  0  0  0  0  0  0  0
    5.5565    0.4960    2.0593 H   0  0  0  0  0  0  0  0  0  0  0  0
    3.6747   -0.5105    3.5633 H   0  0  0  0  0  0  0  0  0  0  0  0
    3.7015    0.9340    4.5466 H   0  0  0  0  0  0  0  0  0  0  0  0
    5.9784    1.1536    4.2214 H   0  0  0  0  0  0  0  0  0  0  0  0
    5.5608   -1.2546    2.7891 H   0  0  0  0  0  0  0  0  0  0  0  0
    0.9090    2.9553   -1.0356 H   0  0  0  0  0  0  0  0  0  0  0  0
    0.9348    1.4553   -1.9319 H   0  0  0  0  0  0  0  0  0  0  0  0
  3 52  1  0  0  0  0
  4  5  1  0  0  0  0
  4 25  1  0  0  0  0
  4  1  2  0  0  0  0
  5 23  1  0  0  0  0
  5 27  1  0  0  0  0
  5 28  1  0  0  0  0
  6 23  1  0  0  0  0
  6 29  1  0  0  0  0
  6  7  2  0  0  0  0
  7  8  1  0  0  0  0
  7 30  1  0  0  0  0
  8 31  1  0  0  0  0
  8 24  2  0  0  0  0
  9 25  1  0  0  0  0
  9 10  1  0  0  0  0
  9 33  1  0  0  0  0
  9 34  1  0  0  0  0
 10 11  1  0  0  0  0
 10 35  1  0  0  0  0
 10 36  1  0  0  0  0
 11 12  1  0  0  0  0
 11 22  1  0  0  0  0
 11 37  1  6  0  0  0
 12 13  1  0  0  0  0
 12 38  1  0  0  0  0
 12 39  1  0  0  0  0
 13 26  1  0  0  0  0
 13 40  1  0  0  0  0
 13 41  1  0  0  0  0
 14 26  1  0  0  0  0
 14 15  1  0  0  0  0
 14  2  2  0  0  0  0
 15 16  1  0  0  0  0
 15 19  1  0  0  0  0
 15 42  1  1  0  0  0
 16 17  1  0  0  0  0
 16 43  1  0  0  0  0
 16 44  1  0  0  0  0
 17 18  1  0  0  0  0
 17 21  1  0  0  0  0
 17 45  1  6  0  0  0
 18 19  1  0  0  0  0
 18 46  1  0  0  0  0
 18 47  1  0  0  0  0
 19 20  1  0  0  0  0
 19 48  1  6  0  0  0
 20 21  1  0  0  0  0
 20 49  1  0  0  0  0
 20 50  1  0  0  0  0
 21  3  1  0  0  0  0
 21 51  1  1  0  0  0
 22 26  1  0  0  0  0
 22 53  1  0  0  0  0
 22 54  1  0  0  0  0
 23 24  1  0  0  0  0
 25 32  1  0  0  0  0
M  END
>  <score>
0.44334399700164795

$$$$
PV-003267362845
 OpenBabel08202115463D

 44 46  0  0  0  0  0  0  0  0999 V2000
    8.0905    0.5252    5.5533 N   0  0  0  0  0  0  0  0  0  0  0  0
    2.2033    1.0255    0.8254 N   0  0  0  0  0  0  0  0  0  0  0  0
   -2.3971   -1.3763   -0.6807 N   0  0  0  0  0  0  0  0  0  0  0  0
    7.2568    0.7723    4.8007 C   0  0  0  0  0  0  0  0  0  0  0  0
    6.2145    1.0684    3.8676 C   0  0  0  0  0  0  0  0  0  0  0  0
    6.1948    2.2878    3.2172 C   0  0  0  0  0  0  0  0  0  0  0  0
    5.1874    2.5728    2.3087 C   0  0  0  0  0  0  0  0  0  0  0  0
    4.1996    1.6395    2.0572 C   0  0  0  0  0  0  0  0  0  0  0  0
    3.1245    1.9567    1.0887 C   0  0  0  0  0  0  0  0  0  0  0  0
    1.1096    1.2523   -0.1248 C   0  0  1  0  0  0  0  0  0  0  0  0
    0.4573   -0.0384   -0.6717 C   0  0  0  0  0  0  0  0  0  0  0  0
   -0.9344    0.6024   -0.4385 C   0  0  1  0  0  0  0  0  0  0  0  0
   -1.9440   -0.3095    0.2136 C   0  0  0  0  0  0  0  0  0  0  0  0
   -3.5067   -1.2346   -1.5000 C   0  0  0  0  0  0  0  0  0  0  0  0
   -3.8910   -2.3662   -2.4115 C   0  0  0  0  0  0  0  0  0  0  0  0
   -5.1243   -2.1124   -3.2406 C   0  0  0  0  0  0  0  0  0  0  0  0
   -5.3403   -1.0748   -4.0661 C   0  0  0  0  0  0  0  0  0  0  0  0
   -7.1264   -2.3307   -4.1682 C   0  0  0  0  0  0  0  0  0  0  0  0
   -6.2892   -2.9242   -3.3036 C   0  0  0  0  0  0  0  0  0  0  0  0
   -0.2453    1.5990    0.5292 C   0  0  0  0  0  0  0  0  0  0  0  0
    4.2190    0.4165    2.7094 C   0  0  0  0  0  0  0  0  0  0  0  0
    5.2236    0.1325    3.6153 C   0  0  0  0  0  0  0  0  0  0  0  0
    3.0832    3.0613    0.5371 O   0  0  0  0  0  0  0  0  0  0  0  0
   -4.1356   -0.1931   -1.4535 O   0  0  0  0  0  0  0  0  0  0  0  0
   -6.5701   -1.1768   -4.6594 O   0  0  0  0  0  0  0  0  0  0  0  0
   -1.5166    1.2067   -1.6035 F   0  0  0  0  0  0  0  0  0  0  0  0
    6.9360    2.9916    3.4094 H   0  0  0  0  0  0  0  0  0  0  0  0
    5.1750    3.4888    1.8163 H   0  0  0  0  0  0  0  0  0  0  0  0
    2.2605    0.1609    1.2831 H   0  0  0  0  0  0  0  0  0  0  0  0
    1.4282    1.9421   -0.8781 H   0  0  0  0  0  0  0  0  0  0  0  0
    0.6452   -0.9113   -0.0822 H   0  0  0  0  0  0  0  0  0  0  0  0
    0.6813   -0.2451   -1.6974 H   0  0  0  0  0  0  0  0  0  0  0  0
   -2.7914    0.2730    0.5093 H   0  0  0  0  0  0  0  0  0  0  0  0
   -1.4966   -0.7537    1.0781 H   0  0  0  0  0  0  0  0  0  0  0  0
   -1.8989   -2.2200   -0.7010 H   0  0  0  0  0  0  0  0  0  0  0  0
   -4.0656   -3.2341   -1.8105 H   0  0  0  0  0  0  0  0  0  0  0  0
   -3.0737   -2.5510   -3.0769 H   0  0  0  0  0  0  0  0  0  0  0  0
   -4.6660   -0.3005   -4.2317 H   0  0  0  0  0  0  0  0  0  0  0  0
   -8.0651   -2.6943   -4.4293 H   0  0  0  0  0  0  0  0  0  0  0  0
   -6.4597   -3.8070   -2.7809 H   0  0  0  0  0  0  0  0  0  0  0  0
   -0.3172    1.3310    1.5626 H   0  0  0  0  0  0  0  0  0  0  0  0
   -0.5482    2.6173    0.4024 H   0  0  0  0  0  0  0  0  0  0  0  0
    3.4779   -0.2873    2.5172 H   0  0  0  0  0  0  0  0  0  0  0  0
    5.2360   -0.7835    4.1076 H   0  0  0  0  0  0  0  0  0  0  0  0
  2 29  1  0  0  0  0
  3 35  1  0  0  0  0
  4  5  1  0  0  0  0
  4  1  3  0  0  0  0
  5 22  1  0  0  0  0
  5  6  2  0  0  0  0
  6  7  1  0  0  0  0
  6 27  1  0  0  0  0
  7 28  1  0  0  0  0
  7  8  2  0  0  0  0
  8  9  1  0  0  0  0
  8 21  1  0  0  0  0
  9  2  1  0  0  0  0
  9 23  2  0  0  0  0
 10  2  1  0  0  0  0
 10 11  1  0  0  0  0
 10 20  1  0  0  0  0
 10 30  1  6  0  0  0
 11 12  1  0  0  0  0
 11 31  1  0  0  0  0
 11 32  1  0  0  0  0
 12 26  1  6  0  0  0
 12 13  1  0  0  0  0
 12 20  1  0  0  0  0
 13  3  1  0  0  0  0
 13 33  1  0  0  0  0
 13 34  1  0  0  0  0
 14  3  1  0  0  0  0
 14 15  1  0  0  0  0
 14 24  2  0  0  0  0
 15 16  1  0  0  0  0
 15 36  1  0  0  0  0
 15 37  1  0  0  0  0
 16 19  1  0  0  0  0
 16 17  2  0  0  0  0
 17 25  1  0  0  0  0
 17 38  1  0  0  0  0
 18 25  1  0  0  0  0
 18 39  1  0  0  0  0
 18 19  2  0  0  0  0
 19 40  1  0  0  0  0
 20 41  1  0  0  0  0
 20 42  1  0  0  0  0
 21 43  1  0  0  0  0
 21 22  2  0  0  0  0
 22 44  1  0  0  0  0
M  END
>  <score>
0.44347566366195679

$$$$
PV-003981829304
 OpenBabel08202115463D

 48 50  0  0  0  0  0  0  0  0999 V2000
    6.1455    0.6114    2.5610 C   0  0  0  0  0  0  0  0  0  0  0  0
    4.8075    0.6209    3.2579 C   0  0  0  0  0  0  0  0  0  0  0  0
    4.0426    3.9032    4.1369 C   0  0  0  0  0  0  0  0  0  0  0  0
    3.4611    2.6585    2.5799 C   0  0  0  0  0  0  0  0  0  0  0  0
    2.8286    2.1246    1.3725 C   0  0  0  0  0  0  0  0  0  0  0  0
    1.1440    2.5012   -0.3597 C   0  0  0  0  0  0  0  0  0  0  0  0
   -0.0781    1.6597   -0.0717 C   0  0  2  0  0  0  0  0  0  0  0  0
    0.2288    0.2105    0.4161 C   0  0  0  0  0  0  0  0  0  0  0  0
   -0.7950   -0.3554   -0.5931 C   0  0  1  0  0  0  0  0  0  0  0  0
   -2.1510   -0.6959    0.0033 C   0  0  0  0  0  0  0  0  0  0  0  0
   -3.3320   -2.2648   -1.4828 C   0  0  0  0  0  0  0  0  0  0  0  0
   -4.3850   -2.4419   -2.5096 C   0  0  0  0  0  0  0  0  0  0  0  0
   -4.6829   -3.5946   -3.1966 C   0  0  0  0  0  0  0  0  0  0  0  0
   -4.0975   -4.9641   -3.1533 C   0  0  0  0  0  0  0  0  0  0  0  0
   -5.2872   -1.4830   -2.9899 C   0  0  0  0  0  0  0  0  0  0  0  0
   -0.7332    1.0194   -1.3227 C   0  0  0  0  0  0  0  0  0  0  0  0
    4.3018    1.9906    3.3657 N   0  0  0  0  0  0  0  0  0  0  0  0
    4.6946    2.7851    4.3966 N   0  0  0  0  0  0  0  0  0  0  0  0
    3.2690    3.8822    3.0370 N   0  0  0  0  0  0  0  0  0  0  0  0
    1.8584    2.8802    0.8502 N   0  0  0  0  0  0  0  0  0  0  0  0
   -3.1501   -1.0134   -1.0186 N   0  0  0  0  0  0  0  0  0  0  0  0
   -5.7092   -3.3003   -4.0299 N   0  0  0  0  0  0  0  0  0  0  0  0
   -6.1003   -2.0055   -3.9127 N   0  0  0  0  0  0  0  0  0  0  0  0
    3.1447    1.0537    0.8463 O   0  0  0  0  0  0  0  0  0  0  0  0
   -2.6728   -3.2181   -1.0901 O   0  0  0  0  0  0  0  0  0  0  0  0
   -0.9670    2.3855    0.7545 F   0  0  0  0  0  0  0  0  0  0  0  0
    6.5274   -0.3878    2.5346 H   0  0  0  0  0  0  0  0  0  0  0  0
    6.8287    1.2402    3.0926 H   0  0  0  0  0  0  0  0  0  0  0  0
    6.0293    0.9750    1.5614 H   0  0  0  0  0  0  0  0  0  0  0  0
    4.9172    0.2068    4.2384 H   0  0  0  0  0  0  0  0  0  0  0  0
    4.1129    0.0312    2.6968 H   0  0  0  0  0  0  0  0  0  0  0  0
    4.1220    4.7447    4.7428 H   0  0  0  0  0  0  0  0  0  0  0  0
    1.6196    3.7189    1.2974 H   0  0  0  0  0  0  0  0  0  0  0  0
    1.8056    1.9415   -0.9874 H   0  0  0  0  0  0  0  0  0  0  0  0
    0.8358    3.3905   -0.8687 H   0  0  0  0  0  0  0  0  0  0  0  0
    1.2356   -0.1048    0.2381 H   0  0  0  0  0  0  0  0  0  0  0  0
   -0.0254    0.0328    1.4402 H   0  0  0  0  0  0  0  0  0  0  0  0
   -0.4409   -1.1834   -1.1709 H   0  0  0  0  0  0  0  0  0  0  0  0
   -2.4960    0.1427    0.5713 H   0  0  0  0  0  0  0  0  0  0  0  0
   -2.0391   -1.5424    0.6481 H   0  0  0  0  0  0  0  0  0  0  0  0
   -3.7059   -0.2903   -1.3773 H   0  0  0  0  0  0  0  0  0  0  0  0
   -3.6741   -5.1412   -2.1867 H   0  0  0  0  0  0  0  0  0  0  0  0
   -3.3338   -5.0490   -3.8980 H   0  0  0  0  0  0  0  0  0  0  0  0
   -4.8642   -5.6857   -3.3441 H   0  0  0  0  0  0  0  0  0  0  0  0
   -6.1200   -3.9444   -4.6436 H   0  0  0  0  0  0  0  0  0  0  0  0
   -5.3196   -0.4940   -2.6700 H   0  0  0  0  0  0  0  0  0  0  0  0
   -1.6919    1.4257   -1.5689 H   0  0  0  0  0  0  0  0  0  0  0  0
   -0.1093    1.0239   -2.1920 H   0  0  0  0  0  0  0  0  0  0  0  0
  1  2  1  0  0  0  0
  1 27  1  0  0  0  0
  1 28  1  0  0  0  0
  1 29  1  0  0  0  0
  2 17  1  0  0  0  0
  2 30  1  0  0  0  0
  2 31  1  0  0  0  0
  3 19  1  0  0  0  0
  3 32  1  0  0  0  0
  3 18  2  0  0  0  0
  4 17  1  0  0  0  0
  4  5  1  0  0  0  0
  4 19  2  0  0  0  0
  5 20  1  0  0  0  0
  5 24  2  0  0  0  0
  6 20  1  0  0  0  0
  6  7  1  0  0  0  0
  6 34  1  0  0  0  0
  6 35  1  0  0  0  0
  7 26  1  1  0  0  0
  7  8  1  0  0  0  0
  7 16  1  0  0  0  0
  8  9  1  0  0  0  0
  8 36  1  0  0  0  0
  8 37  1  0  0  0  0
  9 10  1  0  0  0  0
  9 16  1  0  0  0  0
  9 38  1  6  0  0  0
 10 21  1  0  0  0  0
 10 39  1  0  0  0  0
 10 40  1  0  0  0  0
 11 21  1  0  0  0  0
 11 12  1  0  0  0  0
 11 25  2  0  0  0  0
 12 15  1  0  0  0  0
 12 13  2  0  0  0  0
 13 14  1  0  0  0  0
 13 22  1  0  0  0  0
 14 42  1  0  0  0  0
 14 43  1  0  0  0  0
 14 44  1  0  0  0  0
 15 46  1  0  0  0  0
 15 23  2  0  0  0  0
 16 47  1  0  0  0  0
 16 48  1  0  0  0  0
 17 18  1  0  0  0  0
 20 33  1  0  0  0  0
 21 41  1  0  0  0  0
 22 23  1  0  0  0  0
 22 45  1  0  0  0  0
M  END
>  <score>
0.44351959228515625

$$$$
PV-003066479781
 OpenBabel08202115463D

 55 55  0  0  0  0  0  0  0  0999 V2000
    2.2988    3.2515    1.9555 C   0  0  0  0  0  0  0  0  0  0  0  0
    1.2750    1.0348    1.4437 C   0  0  0  0  0  0  0  0  0  0  0  0
    1.2165    0.8567   -0.0561 C   0  0  0  0  0  0  0  0  0  0  0  0
   -1.1088    0.1244   -0.5795 C   0  0  0  0  0  0  0  0  0  0  0  0
   -1.9315   -1.0976   -0.9672 C   0  0  2  0  0  0  0  0  0  0  0  0
   -3.3705   -0.6934   -1.2600 C   0  0  0  0  0  0  0  0  0  0  0  0
   -4.2422   -1.7795   -1.8314 C   0  0  0  0  0  0  0  0  0  0  0  0
   -6.4529   -2.2443   -2.7000 C   0  0  0  0  0  0  0  0  0  0  0  0
   -7.7869   -1.5444   -2.9024 C   0  0  0  0  0  0  0  0  0  0  0  0
   -6.5860   -3.3879   -1.7146 C   0  0  0  0  0  0  0  0  0  0  0  0
   -5.8348   -2.7210   -4.0042 C   0  0  0  0  0  0  0  0  0  0  0  0
    3.6429    1.2515    2.1936 C   0  0  0  0  0  0  0  0  0  0  0  0
    4.8201    2.1742    2.3632 C   0  0  0  0  0  0  0  0  0  0  0  0
    6.1560    1.4914    2.1003 C   0  0  0  0  0  0  0  0  0  0  0  0
    7.2187    2.5742    2.1197 C   0  0  0  0  0  0  0  0  0  0  0  0
    6.1362    0.3163    1.1737 C   0  0  0  0  0  0  0  0  0  0  0  0
    6.3141    0.1079    2.6481 C   0  0  0  0  0  0  0  0  0  0  0  0
    2.4508    1.7964    1.8739 N   0  0  0  0  0  0  0  0  0  0  0  0
    0.2104   -0.1247   -0.4662 N   0  0  0  0  0  0  0  0  0  0  0  0
   -1.6325    1.2222   -0.3945 O   0  0  0  0  0  0  0  0  0  0  0  0
   -1.9625   -2.0887    0.0576 O   0  0  0  0  0  0  0  0  0  0  0  0
   -3.8786   -2.8863   -2.1073 O   0  0  0  0  0  0  0  0  0  0  0  0
   -5.5127   -1.3415   -1.9980 O   0  0  0  0  0  0  0  0  0  0  0  0
    3.7668    0.0365    2.3427 O   0  0  0  0  0  0  0  0  0  0  0  0
    7.2325    3.0710    3.4695 O   0  0  0  0  0  0  0  0  0  0  0  0
    1.3753    3.4874    2.4418 H   0  0  0  0  0  0  0  0  0  0  0  0
    2.2981    3.6657    0.9690 H   0  0  0  0  0  0  0  0  0  0  0  0
    3.1119    3.6639    2.5155 H   0  0  0  0  0  0  0  0  0  0  0  0
    0.3950    1.5538    1.7619 H   0  0  0  0  0  0  0  0  0  0  0  0
    1.3055    0.0687    1.9028 H   0  0  0  0  0  0  0  0  0  0  0  0
    2.1752    0.5290   -0.4001 H   0  0  0  0  0  0  0  0  0  0  0  0
    0.9790    1.7988   -0.5043 H   0  0  0  0  0  0  0  0  0  0  0  0
    0.5199   -1.0310   -0.6740 H   0  0  0  0  0  0  0  0  0  0  0  0
   -1.5121   -1.5159   -1.8583 H   0  0  0  0  0  0  0  0  0  0  0  0
   -1.0649   -2.3344    0.2931 H   0  0  0  0  0  0  0  0  0  0  0  0
   -3.3502    0.1159   -1.9596 H   0  0  0  0  0  0  0  0  0  0  0  0
   -3.8133   -0.3626   -0.3438 H   0  0  0  0  0  0  0  0  0  0  0  0
   -8.4691   -2.2098   -3.3891 H   0  0  0  0  0  0  0  0  0  0  0  0
   -7.6445   -0.6741   -3.5083 H   0  0  0  0  0  0  0  0  0  0  0  0
   -8.1863   -1.2568   -1.9523 H   0  0  0  0  0  0  0  0  0  0  0  0
   -6.5428   -3.0059   -0.7161 H   0  0  0  0  0  0  0  0  0  0  0  0
   -5.7866   -4.0830   -1.8653 H   0  0  0  0  0  0  0  0  0  0  0  0
   -7.5226   -3.8823   -1.8669 H   0  0  0  0  0  0  0  0  0  0  0  0
   -4.8945   -3.1904   -3.8033 H   0  0  0  0  0  0  0  0  0  0  0  0
   -5.6839   -1.8843   -4.6539 H   0  0  0  0  0  0  0  0  0  0  0  0
   -6.4910   -3.4239   -4.4736 H   0  0  0  0  0  0  0  0  0  0  0  0
    4.8194    2.5463    3.3664 H   0  0  0  0  0  0  0  0  0  0  0  0
    4.7144    2.9903    1.6794 H   0  0  0  0  0  0  0  0  0  0  0  0
    6.9677    3.3573    1.4352 H   0  0  0  0  0  0  0  0  0  0  0  0
    8.1735    2.1662    1.8613 H   0  0  0  0  0  0  0  0  0  0  0  0
    6.7193    3.8808    3.5181 H   0  0  0  0  0  0  0  0  0  0  0  0
    6.9555    0.1469    0.5068 H   0  0  0  0  0  0  0  0  0  0  0  0
    5.2228    0.0249    0.6986 H   0  0  0  0  0  0  0  0  0  0  0  0
    5.5277   -0.3321    3.2250 H   0  0  0  0  0  0  0  0  0  0  0  0
    7.2604   -0.2101    3.0331 H   0  0  0  0  0  0  0  0  0  0  0  0
  1 18  1  0  0  0  0
  1 26  1  0  0  0  0
  1 27  1  0  0  0  0
  1 28  1  0  0  0  0
  2 18  1  0  0  0  0
  2  3  1  0  0  0  0
  2 29  1  0  0  0  0
  2 30  1  0  0  0  0
  3 19  1  0  0  0  0
  3 31  1  0  0  0  0
  3 32  1  0  0  0  0
  4 19  1  0  0  0  0
  4  5  1  0  0  0  0
  4 20  2  0  0  0  0
  5 21  1  0  0  0  0
  5  6  1  0  0  0  0
  5 34  1  6  0  0  0
  6  7  1  0  0  0  0
  6 36  1  0  0  0  0
  6 37  1  0  0  0  0
  7 23  1  0  0  0  0
  7 22  2  0  0  0  0
  8 23  1  0  0  0  0
  8  9  1  0  0  0  0
  8 10  1  0  0  0  0
  8 11  1  0  0  0  0
  9 38  1  0  0  0  0
  9 39  1  0  0  0  0
  9 40  1  0  0  0  0
 10 41  1  0  0  0  0
 10 42  1  0  0  0  0
 10 43  1  0  0  0  0
 11 44  1  0  0  0  0
 11 45  1  0  0  0  0
 11 46  1  0  0  0  0
 12 18  1  0  0  0  0
 12 13  1  0  0  0  0
 12 24  2  0  0  0  0
 13 14  1  0  0  0  0
 13 47  1  0  0  0  0
 13 48  1  0  0  0  0
 14 15  1  0  0  0  0
 14 16  1  0  0  0  0
 14 17  1  0  0  0  0
 15 25  1  0  0  0  0
 15 49  1  0  0  0  0
 15 50  1  0  0  0  0
 16 17  1  0  0  0  0
 16 52  1  0  0  0  0
 16 53  1  0  0  0  0
 17 54  1  0  0  0  0
 17 55  1  0  0  0  0
 19 33  1  0  0  0  0
 21 35  1  0  0  0  0
 25 51  1  0  0  0  0
M  END
>  <score>
0.44359195232391357

$$$$
Z4591802676
 OpenBabel08202115463D

 49 52  0  0  0  0  0  0  0  0999 V2000
    0.6051   -0.7874    0.3592 O   0  0  0  0  0  0  0  0  0  0  0  0
   -4.8391   -1.2433   -2.7742 O   0  0  0  0  0  0  0  0  0  0  0  0
   -0.1437    0.0271   -0.1080 C   0  0  0  0  0  0  0  0  0  0  0  0
    1.0500    1.9753    0.7993 C   0  0  0  0  0  0  0  0  0  0  0  0
    1.0506    3.3488    0.9511 C   0  0  0  0  0  0  0  0  0  0  0  0
    2.9610    3.2871    2.2047 C   0  0  0  0  0  0  0  0  0  0  0  0
    3.0353    1.9086    2.1062 C   0  0  0  0  0  0  0  0  0  0  0  0
    3.9964    0.6595    4.0641 C   0  0  0  0  0  0  0  0  0  0  0  0
    5.2031    1.1481    4.8252 C   0  0  0  0  0  0  0  0  0  0  0  0
    6.4721    1.2585    2.8177 C   0  0  0  0  0  0  0  0  0  0  0  0
    5.2843    0.7865    2.0166 C   0  0  0  0  0  0  0  0  0  0  0  0
    2.0613    1.2405    1.3902 C   0  0  0  0  0  0  0  0  0  0  0  0
   -1.3926   -0.4124   -0.8338 C   0  0  0  0  0  0  0  0  0  0  0  0
   -3.4040    0.2115   -1.7224 C   0  0  0  0  0  0  0  0  0  0  0  0
   -3.6727   -1.0782   -2.1398 C   0  0  0  0  0  0  0  0  0  0  0  0
   -5.3385   -2.5573   -3.1176 C   0  0  0  0  0  0  0  0  0  0  0  0
   -6.5890   -2.3688   -3.9753 C   0  0  0  0  0  0  0  0  0  0  0  0
   -7.0212   -3.2891   -5.0776 C   0  0  0  0  0  0  0  0  0  0  0  0
   -6.5276   -1.9137   -5.3998 C   0  0  0  0  0  0  0  0  0  0  0  0
   -2.7444   -2.0688   -1.8780 C   0  0  0  0  0  0  0  0  0  0  0  0
   -1.5823   -1.7299   -1.2127 C   0  0  0  0  0  0  0  0  0  0  0  0
    0.0372    1.3351    0.0558 N   0  0  0  0  0  0  0  0  0  0  0  0
    1.9841    4.0116    1.6407 N   0  0  0  0  0  0  0  0  0  0  0  0
    4.0425    1.1645    2.6929 N   0  0  0  0  0  0  0  0  0  0  0  0
    6.4408    0.7193    4.1747 N   0  0  0  0  0  0  0  0  0  0  0  0
   -2.2859    0.5572   -1.0772 N   0  0  0  0  0  0  0  0  0  0  0  0
   -0.6516   -2.6638   -0.9380 F   0  0  0  0  0  0  0  0  0  0  0  0
   -0.6080    1.9213   -0.3921 H   0  0  0  0  0  0  0  0  0  0  0  0
    0.2854    3.8947    0.5060 H   0  0  0  0  0  0  0  0  0  0  0  0
    3.6989    3.7852    2.7423 H   0  0  0  0  0  0  0  0  0  0  0  0
    3.1070    1.0119    4.5433 H   0  0  0  0  0  0  0  0  0  0  0  0
    3.9943   -0.4104    4.0493 H   0  0  0  0  0  0  0  0  0  0  0  0
    5.1816    2.2170    4.8666 H   0  0  0  0  0  0  0  0  0  0  0  0
    5.1744    0.7515    5.8186 H   0  0  0  0  0  0  0  0  0  0  0  0
    6.4726   -0.2596    4.1406 H   0  0  0  0  0  0  0  0  0  0  0  0
    6.4578    2.3273    2.8663 H   0  0  0  0  0  0  0  0  0  0  0  0
    7.3701    0.9349    2.3342 H   0  0  0  0  0  0  0  0  0  0  0  0
    5.3103    1.2363    1.0461 H   0  0  0  0  0  0  0  0  0  0  0  0
    5.3241   -0.2782    1.9180 H   0  0  0  0  0  0  0  0  0  0  0  0
    2.0880    0.2050    1.2974 H   0  0  0  0  0  0  0  0  0  0  0  0
   -4.1080    0.9510   -1.9206 H   0  0  0  0  0  0  0  0  0  0  0  0
   -5.5851   -3.0974   -2.2275 H   0  0  0  0  0  0  0  0  0  0  0  0
   -4.5965   -3.0965   -3.6687 H   0  0  0  0  0  0  0  0  0  0  0  0
   -7.4075   -1.9474   -3.4300 H   0  0  0  0  0  0  0  0  0  0  0  0
   -8.0570   -3.5280   -5.1999 H   0  0  0  0  0  0  0  0  0  0  0  0
   -6.4261   -4.1429   -5.3260 H   0  0  0  0  0  0  0  0  0  0  0  0
   -5.5798   -1.7847   -5.8792 H   0  0  0  0  0  0  0  0  0  0  0  0
   -7.2108   -1.1698   -5.7531 H   0  0  0  0  0  0  0  0  0  0  0  0
   -2.9177   -3.0499   -2.1761 H   0  0  0  0  0  0  0  0  0  0  0  0
  3 22  1  0  0  0  0
  3 13  1  0  0  0  0
  3  1  2  0  0  0  0
  4 22  1  0  0  0  0
  4 12  1  0  0  0  0
  4  5  2  0  0  0  0
  5 23  1  0  0  0  0
  5 29  1  0  0  0  0
  6  7  1  0  0  0  0
  6 30  1  0  0  0  0
  6 23  2  0  0  0  0
  7 24  1  0  0  0  0
  7 12  2  0  0  0  0
  8 24  1  0  0  0  0
  8  9  1  0  0  0  0
  8 31  1  0  0  0  0
  8 32  1  0  0  0  0
  9 25  1  0  0  0  0
  9 33  1  0  0  0  0
  9 34  1  0  0  0  0
 10 25  1  0  0  0  0
 10 11  1  0  0  0  0
 10 36  1  0  0  0  0
 10 37  1  0  0  0  0
 11 24  1  0  0  0  0
 11 38  1  0  0  0  0
 11 39  1  0  0  0  0
 12 40  1  0  0  0  0
 13 21  1  0  0  0  0
 13 26  2  0  0  0  0
 14 26  1  0  0  0  0
 14 41  1  0  0  0  0
 14 15  2  0  0  0  0
 15  2  1  0  0  0  0
 15 20  1  0  0  0  0
 16  2  1  0  0  0  0
 16 17  1  0  0  0  0
 16 42  1  0  0  0  0
 16 43  1  0  0  0  0
 17 18  1  0  0  0  0
 17 19  1  0  0  0  0
 17 44  1  0  0  0  0
 18 19  1  0  0  0  0
 18 45  1  0  0  0  0
 18 46  1  0  0  0  0
 19 47  1  0  0  0  0
 19 48  1  0  0  0  0
 20 49  1  0  0  0  0
 20 21  2  0  0  0  0
 21 27  1  0  0  0  0
 22 28  1  0  0  0  0
 25 35  1  0  0  0  0
M  END
>  <score>
0.44369500875473022

$$$$
PV-004118797680
 OpenBabel08202115463D

 54 55  0  0  0  0  0  0  0  0999 V2000
   -4.7889   -3.9739   -1.9905 C   0  0  0  0  0  0  0  0  0  0  0  0
   -5.5917   -2.6945   -1.8199 C   0  0  0  0  0  0  0  0  0  0  0  0
   -6.8314   -2.6696   -2.6991 C   0  0  0  0  0  0  0  0  0  0  0  0
   -4.6961   -1.4739   -2.0132 C   0  0  0  0  0  0  0  0  0  0  0  0
   -3.5415   -1.4113   -1.0265 C   0  0  0  0  0  0  0  0  0  0  0  0
   -2.6936   -0.1551   -1.1792 C   0  0  0  0  0  0  0  0  0  0  0  0
   -0.4035    0.7011   -1.1253 C   0  0  0  0  0  0  0  0  0  0  0  0
   -0.0828    1.3795    0.2075 C   0  0  1  0  0  0  0  0  0  0  0  0
    0.4450    0.3242    1.1579 C   0  0  0  0  0  0  0  0  0  0  0  0
    1.6421   -0.4519    0.6175 C   0  0  0  0  0  0  0  0  0  0  0  0
    2.9967    0.1558    0.8841 C   0  0  0  0  0  0  0  0  0  0  0  0
    3.9250    2.4064    1.2634 C   0  0  0  0  0  0  0  0  0  0  0  0
    4.7446    1.6868    2.3268 C   0  0  1  0  0  0  0  0  0  0  0  0
    4.0067    1.6082    3.6330 C   0  0  0  0  0  0  0  0  0  0  0  0
    5.7451    0.6589    1.8891 C   0  0  0  0  0  0  0  0  0  0  0  0
    6.1976    2.0381    2.2530 C   0  0  0  0  0  0  0  0  0  0  0  0
    2.2570    2.1017   -0.5183 C   0  0  0  0  0  0  0  0  0  0  0  0
    0.8718    2.5270   -0.0653 C   0  0  0  0  0  0  0  0  0  0  0  0
   -3.1962    0.9315   -1.4533 O   0  0  0  0  0  0  0  0  0  0  0  0
    4.0311    3.6051    1.0786 O   0  0  0  0  0  0  0  0  0  0  0  0
   -1.3876   -0.3622   -0.9878 N   0  0  0  0  0  0  0  0  0  0  0  0
    3.0980    1.5938    0.5746 N   0  0  0  0  0  0  0  0  0  0  0  0
    2.6944    1.2016    3.4008 F   0  0  0  0  0  0  0  0  0  0  0  0
    6.6863    2.1043    3.4941 F   0  0  0  0  0  0  0  0  0  0  0  0
    6.7098    2.9148    1.4455 F   0  0  0  0  0  0  0  0  0  0  0  0
   -5.4139   -4.8178   -1.7852 H   0  0  0  0  0  0  0  0  0  0  0  0
   -3.9621   -3.9692   -1.3113 H   0  0  0  0  0  0  0  0  0  0  0  0
   -4.4256   -4.0355   -2.9951 H   0  0  0  0  0  0  0  0  0  0  0  0
   -5.9299   -2.6728   -0.8050 H   0  0  0  0  0  0  0  0  0  0  0  0
   -7.3370   -1.7345   -2.5770 H   0  0  0  0  0  0  0  0  0  0  0  0
   -7.4852   -3.4679   -2.4160 H   0  0  0  0  0  0  0  0  0  0  0  0
   -6.5446   -2.7887   -3.7230 H   0  0  0  0  0  0  0  0  0  0  0  0
   -5.2923   -0.5934   -1.8939 H   0  0  0  0  0  0  0  0  0  0  0  0
   -4.2942   -1.5015   -3.0044 H   0  0  0  0  0  0  0  0  0  0  0  0
   -2.9156   -2.2654   -1.1802 H   0  0  0  0  0  0  0  0  0  0  0  0
   -3.9402   -1.4346   -0.0339 H   0  0  0  0  0  0  0  0  0  0  0  0
   -1.0817   -1.2614   -0.7464 H   0  0  0  0  0  0  0  0  0  0  0  0
   -0.7861    1.4370   -1.8013 H   0  0  0  0  0  0  0  0  0  0  0  0
    0.4980    0.2845   -1.5236 H   0  0  0  0  0  0  0  0  0  0  0  0
   -0.9797    1.7856    0.6265 H   0  0  0  0  0  0  0  0  0  0  0  0
   -0.3430   -0.3706    1.3607 H   0  0  0  0  0  0  0  0  0  0  0  0
    0.7388    0.8064    2.0668 H   0  0  0  0  0  0  0  0  0  0  0  0
    1.5249   -0.5387   -0.4425 H   0  0  0  0  0  0  0  0  0  0  0  0
    1.6275   -1.4262    1.0595 H   0  0  0  0  0  0  0  0  0  0  0  0
    3.2242    0.0212    1.9209 H   0  0  0  0  0  0  0  0  0  0  0  0
    3.7183   -0.3646    0.2896 H   0  0  0  0  0  0  0  0  0  0  0  0
    4.0044    2.5710    4.0998 H   0  0  0  0  0  0  0  0  0  0  0  0
    4.4909    0.9016    4.2743 H   0  0  0  0  0  0  0  0  0  0  0  0
    5.7717    0.3390    0.8684 H   0  0  0  0  0  0  0  0  0  0  0  0
    5.9784   -0.1668    2.5284 H   0  0  0  0  0  0  0  0  0  0  0  0
    2.7448    2.9471   -0.9568 H   0  0  0  0  0  0  0  0  0  0  0  0
    2.1517    1.3299   -1.2519 H   0  0  0  0  0  0  0  0  0  0  0  0
    0.9752    3.0963    0.8348 H   0  0  0  0  0  0  0  0  0  0  0  0
    0.4448    3.1419   -0.8297 H   0  0  0  0  0  0  0  0  0  0  0  0
  1  2  1  0  0  0  0
  1 26  1  0  0  0  0
  1 27  1  0  0  0  0
  1 28  1  0  0  0  0
  2  3  1  0  0  0  0
  2  4  1  0  0  0  0
  2 29  1  0  0  0  0
  3 30  1  0  0  0  0
  3 31  1  0  0  0  0
  3 32  1  0  0  0  0
  4  5  1  0  0  0  0
  4 33  1  0  0  0  0
  4 34  1  0  0  0  0
  5  6  1  0  0  0  0
  5 35  1  0  0  0  0
  5 36  1  0  0  0  0
  6 21  1  0  0  0  0
  6 19  2  0  0  0  0
  7 21  1  0  0  0  0
  7  8  1  0  0  0  0
  7 38  1  0  0  0  0
  7 39  1  0  0  0  0
  8  9  1  0  0  0  0
  8 18  1  0  0  0  0
  8 40  1  1  0  0  0
  9 10  1  0  0  0  0
  9 41  1  0  0  0  0
  9 42  1  0  0  0  0
 10 11  1  0  0  0  0
 10 43  1  0  0  0  0
 10 44  1  0  0  0  0
 11 22  1  0  0  0  0
 11 45  1  0  0  0  0
 11 46  1  0  0  0  0
 12 22  1  0  0  0  0
 12 20  2  0  0  0  0
 13 12  1  6  0  0  0
 13 14  1  0  0  0  0
 13 15  1  0  0  0  0
 13 16  1  0  0  0  0
 14 23  1  0  0  0  0
 14 47  1  0  0  0  0
 14 48  1  0  0  0  0
 15 16  1  0  0  0  0
 15 49  1  0  0  0  0
 15 50  1  0  0  0  0
 16 24  1  0  0  0  0
 16 25  1  0  0  0  0
 17 22  1  0  0  0  0
 17 18  1  0  0  0  0
 17 51  1  0  0  0  0
 17 52  1  0  0  0  0
 18 53  1  0  0  0  0
 18 54  1  0  0  0  0
 21 37  1  0  0  0  0
M  END
>  <score>
0.44370478391647339

$$$$
PV-004037408076
 OpenBabel08202115463D

 54 55  0  0  0  0  0  0  0  0999 V2000
    6.8508    2.3953    2.9921 C   0  0  0  0  0  0  0  0  0  0  0  0
    5.9506    1.5286    2.1250 C   0  0  0  0  0  0  0  0  0  0  0  0
    4.5038    1.4610    2.6283 C   0  0  1  0  0  0  0  0  0  0  0  0
    3.5201    0.8471    1.6409 C   0  0  0  0  0  0  0  0  0  0  0  0
    2.0946    0.7150    2.1407 C   0  0  0  0  0  0  0  0  0  0  0  0
   -0.3112    0.7600    1.4878 C   0  0  0  0  0  0  0  0  0  0  0  0
   -0.9592    1.2103    0.1770 C   0  0  1  0  0  0  0  0  0  0  0  0
    0.0861    0.8947   -0.8820 C   0  0  2  0  0  0  0  0  0  0  0  0
    0.0507   -0.5681   -1.2610 C   0  0  0  0  0  0  0  0  0  0  0  0
   -2.1611   -1.5585   -1.6292 C   0  0  0  0  0  0  0  0  0  0  0  0
   -3.2648   -1.8168   -2.6198 C   0  0  0  0  0  0  0  0  0  0  0  0
   -4.4938   -2.4517   -1.9898 C   0  0  0  0  0  0  0  0  0  0  0  0
   -5.6639   -2.5345   -2.9331 C   0  0  0  0  0  0  0  0  0  0  0  0
   -6.0417   -3.7167   -3.5459 C   0  0  0  0  0  0  0  0  0  0  0  0
   -7.7464   -2.6334   -4.6001 C   0  0  0  0  0  0  0  0  0  0  0  0
   -7.3685   -1.4512   -3.9873 C   0  0  0  0  0  0  0  0  0  0  0  0
    1.3906    1.2475   -0.1898 C   0  0  0  0  0  0  0  0  0  0  0  0
    4.6707    1.6511    4.9914 C   0  0  0  0  0  0  0  0  0  0  0  0
    1.8524    0.4601    3.3197 O   0  0  0  0  0  0  0  0  0  0  0  0
   -2.1643    0.4838   -0.0682 O   0  0  0  0  0  0  0  0  0  0  0  0
   -2.2499   -1.9361   -0.4617 O   0  0  0  0  0  0  0  0  0  0  0  0
    4.5328    0.7866    3.8861 O   0  0  0  0  0  0  0  0  0  0  0  0
    1.1280    0.8946    1.2130 N   0  0  0  0  0  0  0  0  0  0  0  0
   -1.1001   -0.9026   -2.1018 N   0  0  0  0  0  0  0  0  0  0  0  0
   -7.0845   -3.7777   -4.3842 N   0  0  0  0  0  0  0  0  0  0  0  0
   -6.3258   -1.3903   -3.1491 N   0  0  0  0  0  0  0  0  0  0  0  0
    6.9777    1.9333    3.9488 H   0  0  0  0  0  0  0  0  0  0  0  0
    6.4035    3.3591    3.1183 H   0  0  0  0  0  0  0  0  0  0  0  0
    7.8045    2.5034    2.5192 H   0  0  0  0  0  0  0  0  0  0  0  0
    6.3503    0.5362    2.1070 H   0  0  0  0  0  0  0  0  0  0  0  0
    5.9464    1.9300    1.1332 H   0  0  0  0  0  0  0  0  0  0  0  0
    4.1874    2.4690    2.7983 H   0  0  0  0  0  0  0  0  0  0  0  0
    3.8731   -0.1308    1.3881 H   0  0  0  0  0  0  0  0  0  0  0  0
    3.5069    1.4599    0.7639 H   0  0  0  0  0  0  0  0  0  0  0  0
   -0.6077    1.3912    2.2993 H   0  0  0  0  0  0  0  0  0  0  0  0
   -0.5657   -0.2546    1.7131 H   0  0  0  0  0  0  0  0  0  0  0  0
   -1.1724    2.2586    0.1994 H   0  0  0  0  0  0  0  0  0  0  0  0
   -2.6861    0.9429   -0.7306 H   0  0  0  0  0  0  0  0  0  0  0  0
   -0.0594    1.4939   -1.7564 H   0  0  0  0  0  0  0  0  0  0  0  0
    0.0033   -1.1531   -0.3664 H   0  0  0  0  0  0  0  0  0  0  0  0
    0.9466   -0.8054   -1.7959 H   0  0  0  0  0  0  0  0  0  0  0  0
   -1.0907   -0.6353   -3.0446 H   0  0  0  0  0  0  0  0  0  0  0  0
   -2.8941   -2.4728   -3.3794 H   0  0  0  0  0  0  0  0  0  0  0  0
   -3.5512   -0.8851   -3.0611 H   0  0  0  0  0  0  0  0  0  0  0  0
   -4.7815   -1.8676   -1.1407 H   0  0  0  0  0  0  0  0  0  0  0  0
   -4.2410   -3.4420   -1.6730 H   0  0  0  0  0  0  0  0  0  0  0  0
   -5.5003   -4.5827   -3.3497 H   0  0  0  0  0  0  0  0  0  0  0  0
   -8.5636   -2.6332   -5.2434 H   0  0  0  0  0  0  0  0  0  0  0  0
   -7.9099   -0.5852   -4.1836 H   0  0  0  0  0  0  0  0  0  0  0  0
    1.6085    2.2903   -0.2893 H   0  0  0  0  0  0  0  0  0  0  0  0
    2.2026    0.6735   -0.5848 H   0  0  0  0  0  0  0  0  0  0  0  0
    3.8582    2.3473    5.0038 H   0  0  0  0  0  0  0  0  0  0  0  0
    5.5954    2.1839    4.9140 H   0  0  0  0  0  0  0  0  0  0  0  0
    4.6631    1.0783    5.8951 H   0  0  0  0  0  0  0  0  0  0  0  0
  1  2  1  0  0  0  0
  1 27  1  0  0  0  0
  1 28  1  0  0  0  0
  1 29  1  0  0  0  0
  2  3  1  0  0  0  0
  2 30  1  0  0  0  0
  2 31  1  0  0  0  0
  3  4  1  0  0  0  0
  3 22  1  0  0  0  0
  3 32  1  1  0  0  0
  4  5  1  0  0  0  0
  4 33  1  0  0  0  0
  4 34  1  0  0  0  0
  5 23  1  0  0  0  0
  5 19  2  0  0  0  0
  6 23  1  0  0  0  0
  6  7  1  0  0  0  0
  6 35  1  0  0  0  0
  6 36  1  0  0  0  0
  7 20  1  0  0  0  0
  7  8  1  0  0  0  0
  7 37  1  1  0  0  0
  8  9  1  0  0  0  0
  8 17  1  0  0  0  0
  8 39  1  6  0  0  0
  9 24  1  0  0  0  0
  9 40  1  0  0  0  0
  9 41  1  0  0  0  0
 10 24  1  0  0  0  0
 10 11  1  0  0  0  0
 10 21  2  0  0  0  0
 11 12  1  0  0  0  0
 11 43  1  0  0  0  0
 11 44  1  0  0  0  0
 12 13  1  0  0  0  0
 12 45  1  0  0  0  0
 12 46  1  0  0  0  0
 13 26  1  0  0  0  0
 13 14  2  0  0  0  0
 14 25  1  0  0  0  0
 14 47  1  0  0  0  0
 15 16  1  0  0  0  0
 15 48  1  0  0  0  0
 15 25  2  0  0  0  0
 16 49  1  0  0  0  0
 16 26  2  0  0  0  0
 17 23  1  0  0  0  0
 17 50  1  0  0  0  0
 17 51  1  0  0  0  0
 18 22  1  0  0  0  0
 18 52  1  0  0  0  0
 18 53  1  0  0  0  0
 18 54  1  0  0  0  0
 20 38  1  0  0  0  0
 24 42  1  0  0  0  0
M  END
>  <score>
0.44396799802780151

$$$$
Z4007010777
 OpenBabel08202115463D

 41 41  0  0  0  0  0  0  0  0999 V2000
   -6.5143   -3.9589   -4.4431 C   0  0  0  0  0  0  0  0  0  0  0  0
   -5.1172   -2.7109   -3.0048 C   0  0  0  0  0  0  0  0  0  0  0  0
   -3.6866   -2.3401   -2.7257 C   0  0  0  0  0  0  0  0  0  0  0  0
   -3.4777   -1.3144   -1.5874 C   0  0  0  0  0  0  0  0  0  0  0  0
   -2.0495   -0.8157   -1.4105 C   0  0  0  0  0  0  0  0  0  0  0  0
   -1.8953    0.1324   -0.2515 C   0  0  0  0  0  0  0  0  0  0  0  0
   -0.2874    1.1317    1.1946 C   0  0  0  0  0  0  0  0  0  0  0  0
    1.2052    1.3888    1.2266 C   0  0  0  0  0  0  0  0  0  0  0  0
    1.7864    2.4699    0.5827 C   0  0  0  0  0  0  0  0  0  0  0  0
    3.1550    2.6544    0.6398 C   0  0  0  0  0  0  0  0  0  0  0  0
    3.9458    1.7610    1.3456 C   0  0  0  0  0  0  0  0  0  0  0  0
    5.3076    2.3557    4.0981 C   0  0  0  0  0  0  0  0  0  0  0  0
    3.3663    0.6830    1.9877 C   0  0  0  0  0  0  0  0  0  0  0  0
    1.9937    0.4982    1.9303 C   0  0  0  0  0  0  0  0  0  0  0  0
   -5.2149   -3.4467   -4.1088 O   0  0  0  0  0  0  0  0  0  0  0  0
   -6.0376   -2.4443   -2.2870 O   0  0  0  0  0  0  0  0  0  0  0  0
   -2.7951    0.6575    0.3384 O   0  0  0  0  0  0  0  0  0  0  0  0
   -0.5880    0.3217    0.0470 O   0  0  0  0  0  0  0  0  0  0  0  0
    7.4943    2.0195    2.7155 O   0  0  0  0  0  0  0  0  0  0  0  0
    5.9704    0.1097    2.9261 O   0  0  0  0  0  0  0  0  0  0  0  0
   -3.8694   -1.8773   -0.4354 F   0  0  0  0  0  0  0  0  0  0  0  0
   -4.2633   -0.2543   -1.8245 F   0  0  0  0  0  0  0  0  0  0  0  0
    5.3571    1.9543    1.4092 N   0  0  0  0  0  0  0  0  0  0  0  0
    6.1559    1.5178    2.7595 S   0  0  0  0  0  0  0  0  0  0  0  0
   -6.8469   -4.6206   -3.6707 H   0  0  0  0  0  0  0  0  0  0  0  0
   -6.4599   -4.4914   -5.3696 H   0  0  0  0  0  0  0  0  0  0  0  0
   -7.2041   -3.1465   -4.5379 H   0  0  0  0  0  0  0  0  0  0  0  0
   -3.2716   -1.9279   -3.6217 H   0  0  0  0  0  0  0  0  0  0  0  0
   -3.1587   -3.2337   -2.4657 H   0  0  0  0  0  0  0  0  0  0  0  0
   -1.7517   -0.3107   -2.3056 H   0  0  0  0  0  0  0  0  0  0  0  0
   -1.4119   -1.6594   -1.2475 H   0  0  0  0  0  0  0  0  0  0  0  0
   -0.5840    0.6188    2.0855 H   0  0  0  0  0  0  0  0  0  0  0  0
   -0.8119    2.0619    1.1266 H   0  0  0  0  0  0  0  0  0  0  0  0
    1.1926    3.1424    0.0565 H   0  0  0  0  0  0  0  0  0  0  0  0
    3.5915    3.4634    0.1533 H   0  0  0  0  0  0  0  0  0  0  0  0
    5.8398    2.3445    0.6507 H   0  0  0  0  0  0  0  0  0  0  0  0
    4.2707    2.0920    4.0844 H   0  0  0  0  0  0  0  0  0  0  0  0
    5.4079    3.4140    3.9766 H   0  0  0  0  0  0  0  0  0  0  0  0
    5.7379    2.0611    5.0325 H   0  0  0  0  0  0  0  0  0  0  0  0
    3.9601    0.0105    2.5139 H   0  0  0  0  0  0  0  0  0  0  0  0
    1.5572   -0.3108    2.4168 H   0  0  0  0  0  0  0  0  0  0  0  0
  1 15  1  0  0  0  0
  1 25  1  0  0  0  0
  1 26  1  0  0  0  0
  1 27  1  0  0  0  0
  2 15  1  0  0  0  0
  2  3  1  0  0  0  0
  2 16  2  0  0  0  0
  3  4  1  0  0  0  0
  3 28  1  0  0  0  0
  3 29  1  0  0  0  0
  4 21  1  0  0  0  0
  4 22  1  0  0  0  0
  4  5  1  0  0  0  0
  5  6  1  0  0  0  0
  5 30  1  0  0  0  0
  5 31  1  0  0  0  0
  6 18  1  0  0  0  0
  6 17  2  0  0  0  0
  7 18  1  0  0  0  0
  7  8  1  0  0  0  0
  7 32  1  0  0  0  0
  7 33  1  0  0  0  0
  8 14  1  0  0  0  0
  8  9  2  0  0  0  0
  9 10  1  0  0  0  0
  9 34  1  0  0  0  0
 10 35  1  0  0  0  0
 10 11  2  0  0  0  0
 11 23  1  0  0  0  0
 11 13  1  0  0  0  0
 12 37  1  0  0  0  0
 12 38  1  0  0  0  0
 12 39  1  0  0  0  0
 13 40  1  0  0  0  0
 13 14  2  0  0  0  0
 14 41  1  0  0  0  0
 23 36  1  0  0  0  0
 24 23  1  0  0  0  0
 24 12  1  0  0  0  0
 24 19  2  0  0  0  0
 24 20  2  0  0  0  0
M  END
>  <score>
0.44402867555618286

$$$$
Z4228392315
 OpenBabel08202115463D

 45 48  0  0  0  0  0  0  0  0999 V2000
   -1.4915   -2.4091   -1.8555 N   0  0  0  0  0  0  0  0  0  0  0  0
    0.5787    0.9361    0.2810 N   0  0  0  0  0  0  0  0  0  0  0  0
    3.3458    1.7381    2.3326 N   0  0  2  0  0  0  0  0  0  0  0  0
   -3.5624    0.0790   -0.4180 N   0  0  0  0  0  0  0  0  0  0  0  0
   -3.3126   -1.0677   -1.1006 N   0  0  0  0  0  0  0  0  0  0  0  0
   -1.9848   -1.3084   -1.2136 C   0  0  0  0  0  0  0  0  0  0  0  0
   -1.3374   -0.2719   -0.5842 C   0  0  0  0  0  0  0  0  0  0  0  0
    0.1261   -0.0907   -0.4441 C   0  0  0  0  0  0  0  0  0  0  0  0
    1.9985    1.1635    0.5051 C   0  0  1  0  0  0  0  0  0  0  0  0
    2.3138    2.6537    0.4257 C   0  0  0  0  0  0  0  0  0  0  0  0
    2.8133    2.9995    1.8157 C   0  0  0  0  0  0  0  0  0  0  0  0
    4.6996    1.4633    1.7603 C   0  0  0  0  0  0  0  0  0  0  0  0
    5.4592    0.2945    2.4100 C   0  0  0  0  0  0  0  0  0  0  0  0
    5.8346    2.3380    2.3173 C   0  0  0  0  0  0  0  0  0  0  0  0
    2.3854    0.7235    1.8963 C   0  0  0  0  0  0  0  0  0  0  0  0
   -2.3565    0.5653   -0.1100 C   0  0  0  0  0  0  0  0  0  0  0  0
   -4.4043   -1.7730   -1.6588 C   0  0  0  0  0  0  0  0  0  0  0  0
   -5.3075   -1.1156   -2.4795 C   0  0  0  0  0  0  0  0  0  0  0  0
   -6.3772   -1.8033   -3.0208 C   0  0  0  0  0  0  0  0  0  0  0  0
   -6.5438   -3.1520   -2.7471 C   0  0  0  0  0  0  0  0  0  0  0  0
   -5.6433   -3.8077   -1.9289 C   0  0  0  0  0  0  0  0  0  0  0  0
   -4.5705   -3.1177   -1.3861 C   0  0  0  0  0  0  0  0  0  0  0  0
    0.9101   -0.8751   -0.9883 O   0  0  0  0  0  0  0  0  0  0  0  0
    6.5184    1.1744    2.8562 O   0  0  0  0  0  0  0  0  0  0  0  0
   -7.5832   -3.8235   -3.2787 F   0  0  0  0  0  0  0  0  0  0  0  0
   -2.0874   -3.1548   -2.0777 H   0  0  0  0  0  0  0  0  0  0  0  0
   -0.5419   -2.4529   -2.0938 H   0  0  0  0  0  0  0  0  0  0  0  0
   -0.0679    1.5577    0.6758 H   0  0  0  0  0  0  0  0  0  0  0  0
    2.5661    0.6253   -0.2250 H   0  0  0  0  0  0  0  0  0  0  0  0
    1.4351    3.2157    0.1870 H   0  0  0  0  0  0  0  0  0  0  0  0
    3.0694    2.8437   -0.3077 H   0  0  0  0  0  0  0  0  0  0  0  0
    3.5807    3.7437    1.7683 H   0  0  0  0  0  0  0  0  0  0  0  0
    2.0112    3.3522    2.4298 H   0  0  0  0  0  0  0  0  0  0  0  0
    4.6354    1.4268    0.6929 H   0  0  0  0  0  0  0  0  0  0  0  0
    4.9245   -0.1747    3.2093 H   0  0  0  0  0  0  0  0  0  0  0  0
    5.7831   -0.4490    1.7120 H   0  0  0  0  0  0  0  0  0  0  0  0
    6.3910    2.8538    1.5628 H   0  0  0  0  0  0  0  0  0  0  0  0
    5.5151    3.0344    3.0642 H   0  0  0  0  0  0  0  0  0  0  0  0
    2.8383   -0.2457    1.8767 H   0  0  0  0  0  0  0  0  0  0  0  0
    1.5315    0.7057    2.5410 H   0  0  0  0  0  0  0  0  0  0  0  0
   -2.1952    1.4495    0.4133 H   0  0  0  0  0  0  0  0  0  0  0  0
   -5.1802   -0.1047   -2.6880 H   0  0  0  0  0  0  0  0  0  0  0  0
   -7.0570   -1.3091   -3.6332 H   0  0  0  0  0  0  0  0  0  0  0  0
   -5.7706   -4.8186   -1.7204 H   0  0  0  0  0  0  0  0  0  0  0  0
   -3.8906   -3.6119   -0.7736 H   0  0  0  0  0  0  0  0  0  0  0  0
  1 26  1  0  0  0  0
  1 27  1  0  0  0  0
  2 28  1  0  0  0  0
  3 12  1  6  0  0  0
  4  5  1  0  0  0  0
  6  1  1  0  0  0  0
  6  5  1  0  0  0  0
  6  7  2  0  0  0  0
  7  8  1  0  0  0  0
  7 16  1  0  0  0  0
  8  2  1  0  0  0  0
  8 23  2  0  0  0  0
  9  2  1  0  0  0  0
  9 10  1  0  0  0  0
  9 15  1  0  0  0  0
  9 29  1  6  0  0  0
 10 11  1  0  0  0  0
 10 30  1  0  0  0  0
 10 31  1  0  0  0  0
 11  3  1  0  0  0  0
 11 32  1  0  0  0  0
 11 33  1  0  0  0  0
 12 13  1  0  0  0  0
 12 14  1  0  0  0  0
 12 34  1  0  0  0  0
 13 24  1  0  0  0  0
 13 35  1  0  0  0  0
 13 36  1  0  0  0  0
 14 24  1  0  0  0  0
 14 37  1  0  0  0  0
 14 38  1  0  0  0  0
 15  3  1  0  0  0  0
 15 39  1  0  0  0  0
 15 40  1  0  0  0  0
 16 41  1  0  0  0  0
 16  4  2  0  0  0  0
 17  5  1  0  0  0  0
 17 22  1  0  0  0  0
 17 18  2  0  0  0  0
 18 19  1  0  0  0  0
 18 42  1  0  0  0  0
 19 43  1  0  0  0  0
 19 20  2  0  0  0  0
 20 25  1  0  0  0  0
 20 21  1  0  0  0  0
 21 44  1  0  0  0  0
 21 22  2  0  0  0  0
 22 45  1  0  0  0  0
M  END
>  <score>
0.44406777620315552

$$$$
Z4176597089
 OpenBabel08202115463D

 45 46  0  0  0  0  0  0  0  0999 V2000
    1.3933    2.7199    0.5580 C   0  0  0  0  0  0  0  0  0  0  0  0
    0.6138    0.3928    0.2775 C   0  0  0  0  0  0  0  0  0  0  0  0
   -0.6744    0.9937   -0.2504 C   0  0  0  0  0  0  0  0  0  0  0  0
   -2.8832    0.3025   -1.0747 C   0  0  0  0  0  0  0  0  0  0  0  0
   -3.7434   -0.8252   -1.5035 C   0  0  0  0  0  0  0  0  0  0  0  0
   -3.1289   -2.0543   -1.6860 C   0  0  0  0  0  0  0  0  0  0  0  0
   -3.8738   -3.1459   -2.0906 C   0  0  0  0  0  0  0  0  0  0  0  0
   -5.2363   -3.0130   -2.3087 C   0  0  0  0  0  0  0  0  0  0  0  0
   -6.0366   -4.1691   -2.8346 C   0  0  0  0  0  0  0  0  0  0  0  0
   -5.8488   -1.7874   -2.1268 C   0  0  0  0  0  0  0  0  0  0  0  0
   -5.1018   -0.6925   -1.7210 C   0  0  0  0  0  0  0  0  0  0  0  0
    2.8185    0.7682    1.1889 C   0  0  0  0  0  0  0  0  0  0  0  0
    2.9677    1.2728    2.6320 C   0  0  0  0  0  0  0  0  0  0  0  0
    4.2995    0.9130    3.2578 C   0  0  0  0  0  0  0  0  0  0  0  0
    5.4540    1.4107    2.4203 C   0  0  0  0  0  0  0  0  0  0  0  0
    5.3535    0.9181    0.9813 C   0  0  0  0  0  0  0  0  0  0  0  0
    4.0171    1.2803    0.3325 C   0  0  0  0  0  0  0  0  0  0  0  0
    1.5665    1.2701    0.6242 N   0  0  0  0  0  0  0  0  0  0  0  0
   -1.6600   -0.0178   -0.6102 N   0  0  0  0  0  0  0  0  0  0  0  0
    0.7572   -0.8231    0.3743 O   0  0  0  0  0  0  0  0  0  0  0  0
   -3.2804    1.4538   -1.1465 O   0  0  0  0  0  0  0  0  0  0  0  0
   -5.3848   -5.3265   -2.5842 F   0  0  0  0  0  0  0  0  0  0  0  0
   -6.1511   -4.0848   -4.1835 F   0  0  0  0  0  0  0  0  0  0  0  0
   -5.8698    0.8399   -1.4868 Cl  0  0  0  0  0  0  0  0  0  0  0  0
    2.2930    3.1709    0.1949 H   0  0  0  0  0  0  0  0  0  0  0  0
    1.1743    3.0977    1.5348 H   0  0  0  0  0  0  0  0  0  0  0  0
    0.5856    2.9524   -0.1042 H   0  0  0  0  0  0  0  0  0  0  0  0
   -0.4494    1.5767   -1.1190 H   0  0  0  0  0  0  0  0  0  0  0  0
   -1.0923    1.6254    0.5053 H   0  0  0  0  0  0  0  0  0  0  0  0
   -1.4247   -0.9639   -0.5106 H   0  0  0  0  0  0  0  0  0  0  0  0
   -2.1074   -2.1550   -1.5184 H   0  0  0  0  0  0  0  0  0  0  0  0
   -3.4121   -4.0671   -2.2314 H   0  0  0  0  0  0  0  0  0  0  0  0
   -6.9996   -4.1628   -2.3682 H   0  0  0  0  0  0  0  0  0  0  0  0
   -6.8703   -1.6867   -2.2943 H   0  0  0  0  0  0  0  0  0  0  0  0
    2.8086   -0.3018    1.1846 H   0  0  0  0  0  0  0  0  0  0  0  0
    2.1871    0.8431    3.2244 H   0  0  0  0  0  0  0  0  0  0  0  0
    2.8699    2.3384    2.6309 H   0  0  0  0  0  0  0  0  0  0  0  0
    4.3583    1.3561    4.2300 H   0  0  0  0  0  0  0  0  0  0  0  0
    4.3666   -0.1512    3.3456 H   0  0  0  0  0  0  0  0  0  0  0  0
    6.3699    1.0569    2.8457 H   0  0  0  0  0  0  0  0  0  0  0  0
    5.4491    2.4807    2.4225 H   0  0  0  0  0  0  0  0  0  0  0  0
    6.1433    1.3606    0.4109 H   0  0  0  0  0  0  0  0  0  0  0  0
    5.4612   -0.1465    0.9746 H   0  0  0  0  0  0  0  0  0  0  0  0
    3.9508    2.3442    0.2403 H   0  0  0  0  0  0  0  0  0  0  0  0
    3.9681    0.8338   -0.6387 H   0  0  0  0  0  0  0  0  0  0  0  0
  1 18  1  0  0  0  0
  1 25  1  0  0  0  0
  1 26  1  0  0  0  0
  1 27  1  0  0  0  0
  2 18  1  0  0  0  0
  2  3  1  0  0  0  0
  2 20  2  0  0  0  0
  3 19  1  0  0  0  0
  3 28  1  0  0  0  0
  3 29  1  0  0  0  0
  4 19  1  0  0  0  0
  4  5  1  0  0  0  0
  4 21  2  0  0  0  0
  5 11  1  0  0  0  0
  5  6  2  0  0  0  0
  6  7  1  0  0  0  0
  6 31  1  0  0  0  0
  7 32  1  0  0  0  0
  7  8  2  0  0  0  0
  8  9  1  0  0  0  0
  8 10  1  0  0  0  0
  9 22  1  0  0  0  0
  9 23  1  0  0  0  0
  9 33  1  0  0  0  0
 10 34  1  0  0  0  0
 10 11  2  0  0  0  0
 11 24  1  0  0  0  0
 12 18  1  0  0  0  0
 12 13  1  0  0  0  0
 12 17  1  0  0  0  0
 12 35  1  0  0  0  0
 13 14  1  0  0  0  0
 13 36  1  0  0  0  0
 13 37  1  0  0  0  0
 14 15  1  0  0  0  0
 14 38  1  0  0  0  0
 14 39  1  0  0  0  0
 15 16  1  0  0  0  0
 15 40  1  0  0  0  0
 15 41  1  0  0  0  0
 16 17  1  0  0  0  0
 16 42  1  0  0  0  0
 16 43  1  0  0  0  0
 17 44  1  0  0  0  0
 17 45  1  0  0  0  0
 19 30  1  0  0  0  0
M  END
>  <score>
0.44410413503646851

$$$$
Z4483701867
 OpenBabel08202115463D

 53 56  0  0  0  0  0  0  0  0999 V2000
   -5.6768   -0.6934   -1.6306 C   0  0  0  0  0  0  0  0  0  0  0  0
   -5.1385   -3.7209   -3.3459 C   0  0  0  0  0  0  0  0  0  0  0  0
   -3.9384   -3.7147   -2.6220 C   0  0  0  0  0  0  0  0  0  0  0  0
   -3.9747   -2.5633   -1.8720 C   0  0  0  0  0  0  0  0  0  0  0  0
   -3.0028   -1.9666   -0.8895 C   0  0  0  0  0  0  0  0  0  0  0  0
   -1.9179   -1.1309   -1.5561 C   0  0  1  0  0  0  0  0  0  0  0  0
   -2.5433   -0.1116   -2.5028 C   0  0  0  0  0  0  0  0  0  0  0  0
   -2.1523    1.2295   -1.9112 C   0  0  0  0  0  0  0  0  0  0  0  0
   -0.6690    2.0050   -0.1662 C   0  0  0  0  0  0  0  0  0  0  0  0
    0.3877    1.5980    0.8277 C   0  0  0  0  0  0  0  0  0  0  0  0
    1.7249    1.3900    0.5866 C   0  0  0  0  0  0  0  0  0  0  0  0
    3.7200    0.7062    2.0155 C   0  0  2  0  0  0  0  0  0  0  0  0
    3.8873   -0.8079    2.0758 C   0  0  0  0  0  0  0  0  0  0  0  0
    4.5858    1.2769    0.8840 C   0  0  0  0  0  0  0  0  0  0  0  0
    6.0194    1.3045    1.3916 C   0  0  0  0  0  0  0  0  0  0  0  0
    4.1677    1.3209    3.3244 C   0  0  0  0  0  0  0  0  0  0  0  0
    0.2171    1.3505    2.1966 C   0  0  0  0  0  0  0  0  0  0  0  0
   -1.1599   -0.3361   -0.5205 C   0  0  0  0  0  0  0  0  0  0  0  0
   -5.1450   -1.9451   -2.1591 N   0  0  0  0  0  0  0  0  0  0  0  0
   -5.8735   -2.6395   -3.0703 N   0  0  0  0  0  0  0  0  0  0  0  0
   -0.9202    0.9528   -1.1714 N   0  0  0  0  0  0  0  0  0  0  0  0
    2.2864    1.0396    1.7681 N   0  0  0  0  0  0  0  0  0  0  0  0
    1.3748    1.0159    2.7740 N   0  0  0  0  0  0  0  0  0  0  0  0
    5.9148    1.6963    3.1403 S   0  0  0  0  0  0  0  0  0  0  0  0
    6.7392    0.8617    3.9367 O   0  0  0  0  0  0  0  0  0  0  0  0
    6.2150    3.0662    3.4159 O   0  0  0  0  0  0  0  0  0  0  0  0
   -4.8678   -0.0414   -1.3749 H   0  0  0  0  0  0  0  0  0  0  0  0
   -6.2616   -0.8951   -0.7575 H   0  0  0  0  0  0  0  0  0  0  0  0
   -6.2908   -0.2259   -2.3717 H   0  0  0  0  0  0  0  0  0  0  0  0
   -5.4202   -4.4694   -4.0108 H   0  0  0  0  0  0  0  0  0  0  0  0
   -3.1824   -4.4284   -2.6469 H   0  0  0  0  0  0  0  0  0  0  0  0
   -2.5352   -2.7619   -0.3473 H   0  0  0  0  0  0  0  0  0  0  0  0
   -3.5450   -1.3420   -0.2106 H   0  0  0  0  0  0  0  0  0  0  0  0
   -1.2506   -1.7734   -2.0916 H   0  0  0  0  0  0  0  0  0  0  0  0
   -2.1493   -0.2199   -3.4918 H   0  0  0  0  0  0  0  0  0  0  0  0
   -3.6075   -0.2198   -2.5284 H   0  0  0  0  0  0  0  0  0  0  0  0
   -2.9157    1.5909   -1.2543 H   0  0  0  0  0  0  0  0  0  0  0  0
   -1.9768    1.9480   -2.6844 H   0  0  0  0  0  0  0  0  0  0  0  0
   -1.5792    2.2038    0.3599 H   0  0  0  0  0  0  0  0  0  0  0  0
   -0.3460    2.8925   -0.6692 H   0  0  0  0  0  0  0  0  0  0  0  0
    2.2119    1.4837   -0.3275 H   0  0  0  0  0  0  0  0  0  0  0  0
    3.2279   -1.2108    2.8158 H   0  0  0  0  0  0  0  0  0  0  0  0
    4.8986   -1.0448    2.3326 H   0  0  0  0  0  0  0  0  0  0  0  0
    3.6528   -1.2307    1.1213 H   0  0  0  0  0  0  0  0  0  0  0  0
    4.2638    2.2674    0.6389 H   0  0  0  0  0  0  0  0  0  0  0  0
    4.5150    0.6536    0.0172 H   0  0  0  0  0  0  0  0  0  0  0  0
    6.4822    0.3500    1.2513 H   0  0  0  0  0  0  0  0  0  0  0  0
    6.5824    2.0538    0.8755 H   0  0  0  0  0  0  0  0  0  0  0  0
    4.0211    0.6286    4.1270 H   0  0  0  0  0  0  0  0  0  0  0  0
    3.6159    2.2165    3.5200 H   0  0  0  0  0  0  0  0  0  0  0  0
   -0.6917    1.4183    2.6975 H   0  0  0  0  0  0  0  0  0  0  0  0
   -1.7450   -0.2113    0.3666 H   0  0  0  0  0  0  0  0  0  0  0  0
   -0.2356   -0.8157   -0.2743 H   0  0  0  0  0  0  0  0  0  0  0  0
  1 19  1  0  0  0  0
  1 27  1  0  0  0  0
  1 28  1  0  0  0  0
  1 29  1  0  0  0  0
  2  3  1  0  0  0  0
  2 30  1  0  0  0  0
  2 20  2  0  0  0  0
  3 31  1  0  0  0  0
  3  4  2  0  0  0  0
  4 19  1  0  0  0  0
  4  5  1  0  0  0  0
  5  6  1  0  0  0  0
  5 32  1  0  0  0  0
  5 33  1  0  0  0  0
  6  7  1  0  0  0  0
  6 18  1  0  0  0  0
  6 34  1  6  0  0  0
  7  8  1  0  0  0  0
  7 35  1  0  0  0  0
  7 36  1  0  0  0  0
  8 21  1  0  0  0  0
  8 37  1  0  0  0  0
  8 38  1  0  0  0  0
  9 21  1  0  0  0  0
  9 10  1  0  0  0  0
  9 39  1  0  0  0  0
  9 40  1  0  0  0  0
 10 17  1  0  0  0  0
 10 11  2  0  0  0  0
 11 22  1  0  0  0  0
 11 41  1  0  0  0  0
 12 22  1  0  0  0  0
 12 13  1  1  0  0  0
 12 14  1  0  0  0  0
 12 16  1  0  0  0  0
 13 42  1  0  0  0  0
 13 43  1  0  0  0  0
 13 44  1  0  0  0  0
 14 15  1  0  0  0  0
 14 45  1  0  0  0  0
 14 46  1  0  0  0  0
 15 47  1  0  0  0  0
 15 48  1  0  0  0  0
 16 49  1  0  0  0  0
 16 50  1  0  0  0  0
 17 51  1  0  0  0  0
 17 23  2  0  0  0  0
 18 21  1  0  0  0  0
 18 52  1  0  0  0  0
 18 53  1  0  0  0  0
 19 20  1  0  0  0  0
 22 23  1  0  0  0  0
 24 15  1  0  0  0  0
 24 16  1  0  0  0  0
 24 25  2  0  0  0  0
 24 26  2  0  0  0  0
M  END
>  <score>
0.44419199228286743

$$$$
PV-003284748740
 OpenBabel08202115463D

 43 45  0  0  0  0  0  0  0  0999 V2000
   -2.7347    1.7415   -0.3319 O   0  0  0  0  0  0  0  0  0  0  0  0
   -3.1792   -1.4808   -1.7235 O   0  0  0  0  0  0  0  0  0  0  0  0
   -2.5425    0.5972   -0.7407 C   0  0  0  0  0  0  0  0  0  0  0  0
   -0.2108    0.3276    0.2103 C   0  0  0  0  0  0  0  0  0  0  0  0
    0.0041    1.6637    0.4912 C   0  0  0  0  0  0  0  0  0  0  0  0
    1.1728    2.0602    1.1225 C   0  0  0  0  0  0  0  0  0  0  0  0
    2.1255    1.1197    1.4663 C   0  0  0  0  0  0  0  0  0  0  0  0
    3.4061    1.5551    2.0436 C   0  0  0  0  0  0  0  0  0  0  0  0
    3.6321    2.8619    2.2504 C   0  0  0  0  0  0  0  0  0  0  0  0
    4.8495    3.3902    2.9340 C   0  0  0  0  0  0  0  0  0  0  0  0
    5.7916    1.1506    2.8169 C   0  0  0  0  0  0  0  0  0  0  0  0
    4.4533    0.5290    2.3977 C   0  0  0  0  0  0  0  0  0  0  0  0
    1.9101   -0.2203    1.1847 C   0  0  0  0  0  0  0  0  0  0  0  0
    0.7449   -0.6154    0.5552 C   0  0  0  0  0  0  0  0  0  0  0  0
   -3.5530   -0.0894   -1.5938 C   0  0  0  0  0  0  0  0  0  0  0  0
   -4.0322   -2.2440   -2.4860 C   0  0  0  0  0  0  0  0  0  0  0  0
   -3.7441   -3.5914   -2.5940 C   0  0  0  0  0  0  0  0  0  0  0  0
   -4.5667   -4.4182   -3.3433 C   0  0  0  0  0  0  0  0  0  0  0  0
   -5.6719   -3.8940   -3.9867 C   0  0  0  0  0  0  0  0  0  0  0  0
   -5.9609   -2.5426   -3.8784 C   0  0  0  0  0  0  0  0  0  0  0  0
   -5.1407   -1.7184   -3.1313 C   0  0  0  0  0  0  0  0  0  0  0  0
   -1.4058   -0.0775   -0.4290 N   0  0  0  0  0  0  0  0  0  0  0  0
    5.5322    2.3158    3.6568 N   0  0  0  0  0  0  0  0  0  0  0  0
   -3.5957    0.5525   -2.7920 F   0  0  0  0  0  0  0  0  0  0  0  0
   -4.7934    0.0628   -1.0574 F   0  0  0  0  0  0  0  0  0  0  0  0
   -1.4152   -1.0201   -0.6968 H   0  0  0  0  0  0  0  0  0  0  0  0
   -0.7111    2.3718    0.2288 H   0  0  0  0  0  0  0  0  0  0  0  0
    1.3326    3.0651    1.3375 H   0  0  0  0  0  0  0  0  0  0  0  0
    2.9208    3.5431    1.9164 H   0  0  0  0  0  0  0  0  0  0  0  0
    5.5140    3.8018    2.2033 H   0  0  0  0  0  0  0  0  0  0  0  0
    4.5622    4.1541    3.6260 H   0  0  0  0  0  0  0  0  0  0  0  0
    6.3873    2.6574    3.9922 H   0  0  0  0  0  0  0  0  0  0  0  0
    6.3362    1.4504    1.9460 H   0  0  0  0  0  0  0  0  0  0  0  0
    6.3639    0.4327    3.3665 H   0  0  0  0  0  0  0  0  0  0  0  0
    4.0861   -0.0656    3.2080 H   0  0  0  0  0  0  0  0  0  0  0  0
    4.6205   -0.0944    1.5444 H   0  0  0  0  0  0  0  0  0  0  0  0
    2.6253   -0.9284    1.4470 H   0  0  0  0  0  0  0  0  0  0  0  0
    0.5850   -1.6203    0.3402 H   0  0  0  0  0  0  0  0  0  0  0  0
   -2.9102   -3.9851   -2.1132 H   0  0  0  0  0  0  0  0  0  0  0  0
   -4.3522   -5.4329   -3.4213 H   0  0  0  0  0  0  0  0  0  0  0  0
   -6.2868   -4.5135   -4.5521 H   0  0  0  0  0  0  0  0  0  0  0  0
   -6.7948   -2.1490   -4.3592 H   0  0  0  0  0  0  0  0  0  0  0  0
   -5.3552   -0.7038   -3.0533 H   0  0  0  0  0  0  0  0  0  0  0  0
  3 22  1  0  0  0  0
  3 15  1  0  0  0  0
  3  1  2  0  0  0  0
  4 22  1  0  0  0  0
  4 14  1  0  0  0  0
  4  5  2  0  0  0  0
  5  6  1  0  0  0  0
  5 27  1  0  0  0  0
  6 28  1  0  0  0  0
  6  7  2  0  0  0  0
  7  8  1  0  0  0  0
  7 13  1  0  0  0  0
  8 12  1  0  0  0  0
  8  9  2  0  0  0  0
  9 10  1  0  0  0  0
  9 29  1  0  0  0  0
 10 23  1  0  0  0  0
 10 30  1  0  0  0  0
 10 31  1  0  0  0  0
 11 23  1  0  0  0  0
 11 12  1  0  0  0  0
 11 33  1  0  0  0  0
 11 34  1  0  0  0  0
 12 35  1  0  0  0  0
 12 36  1  0  0  0  0
 13 37  1  0  0  0  0
 13 14  2  0  0  0  0
 14 38  1  0  0  0  0
 15 24  1  0  0  0  0
 15 25  1  0  0  0  0
 15  2  1  0  0  0  0
 16  2  1  0  0  0  0
 16 21  1  0  0  0  0
 16 17  2  0  0  0  0
 17 18  1  0  0  0  0
 17 39  1  0  0  0  0
 18 40  1  0  0  0  0
 18 19  2  0  0  0  0
 19 20  1  0  0  0  0
 19 41  1  0  0  0  0
 20 42  1  0  0  0  0
 20 21  2  0  0  0  0
 21 43  1  0  0  0  0
 22 26  1  0  0  0  0
 23 32  1  0  0  0  0
M  END
>  <score>
0.44419854879379272

$$$$
PV-003576481480
 OpenBabel08202115463D

 48 49  0  0  0  0  0  0  0  0999 V2000
    6.0623   -1.3080    2.5560 C   0  0  0  0  0  0  0  0  0  0  0  0
    5.1024   -0.5624    3.4497 C   0  0  0  0  0  0  0  0  0  0  0  0
    3.8813    1.4066    2.3124 C   0  0  0  0  0  0  0  0  0  0  0  0
    3.9137    2.7728    2.0937 C   0  0  0  0  0  0  0  0  0  0  0  0
    2.0059    2.6928    0.8372 C   0  0  0  0  0  0  0  0  0  0  0  0
    1.8989    1.3249    1.0020 C   0  0  0  0  0  0  0  0  0  0  0  0
    0.7669    0.5783    0.3720 C   0  0  0  0  0  0  0  0  0  0  0  0
   -1.2096    0.7596   -1.1554 C   0  0  0  0  0  0  0  0  0  0  0  0
   -0.5063    0.0303   -2.3036 C   0  0  0  0  0  0  0  0  0  0  0  0
   -2.0252    1.9117   -1.7192 C   0  0  0  0  0  0  0  0  0  0  0  0
   -2.1136   -0.2090   -0.4104 C   0  0  1  0  0  0  0  0  0  0  0  0
   -2.5684    0.3356    0.9339 C   0  0  0  0  0  0  0  0  0  0  0  0
   -3.3581   -1.9197   -1.6074 C   0  0  0  0  0  0  0  0  0  0  0  0
   -4.5504   -2.1950   -2.4466 C   0  0  0  0  0  0  0  0  0  0  0  0
   -6.1737   -3.1899   -3.5385 C   0  0  0  0  0  0  0  0  0  0  0  0
   -5.1135   -3.4607   -2.7574 C   0  0  0  0  0  0  0  0  0  0  0  0
    2.8544    0.6692    1.7562 C   0  0  0  0  0  0  0  0  0  0  0  0
    4.9026    0.8321    3.0958 N   0  0  0  0  0  0  0  0  0  0  0  0
    2.9918    3.4221    1.3685 N   0  0  0  0  0  0  0  0  0  0  0  0
   -0.1405    1.3100   -0.2765 N   0  0  0  0  0  0  0  0  0  0  0  0
   -3.2402   -0.6295   -1.2278 N   0  0  0  0  0  0  0  0  0  0  0  0
   -5.2284   -1.2207   -3.0092 N   0  0  0  0  0  0  0  0  0  0  0  0
    0.6951   -0.6365    0.4579 O   0  0  0  0  0  0  0  0  0  0  0  0
   -2.5715   -2.8070   -1.3047 O   0  0  0  0  0  0  0  0  0  0  0  0
   -6.2808   -1.8486   -3.7100 O   0  0  0  0  0  0  0  0  0  0  0  0
    7.0191   -0.8298    2.5818 H   0  0  0  0  0  0  0  0  0  0  0  0
    5.6899   -1.3062    1.5529 H   0  0  0  0  0  0  0  0  0  0  0  0
    6.1586   -2.3168    2.8994 H   0  0  0  0  0  0  0  0  0  0  0  0
    5.4797   -0.6016    4.4502 H   0  0  0  0  0  0  0  0  0  0  0  0
    4.1543   -1.0564    3.4059 H   0  0  0  0  0  0  0  0  0  0  0  0
    5.5681    1.4585    3.4497 H   0  0  0  0  0  0  0  0  0  0  0  0
    4.6910    3.3225    2.5123 H   0  0  0  0  0  0  0  0  0  0  0  0
    1.2822    3.1796    0.2707 H   0  0  0  0  0  0  0  0  0  0  0  0
   -0.1008    2.2830   -0.1663 H   0  0  0  0  0  0  0  0  0  0  0  0
   -0.0089   -0.8377   -1.9239 H   0  0  0  0  0  0  0  0  0  0  0  0
    0.2112    0.6836   -2.7544 H   0  0  0  0  0  0  0  0  0  0  0  0
   -1.2298   -0.2647   -3.0347 H   0  0  0  0  0  0  0  0  0  0  0  0
   -1.3933    2.5408   -2.3107 H   0  0  0  0  0  0  0  0  0  0  0  0
   -2.4419    2.4807   -0.9145 H   0  0  0  0  0  0  0  0  0  0  0  0
   -2.8145    1.5247   -2.3292 H   0  0  0  0  0  0  0  0  0  0  0  0
   -1.5284   -1.0814   -0.2068 H   0  0  0  0  0  0  0  0  0  0  0  0
   -1.7139    0.6191    1.5120 H   0  0  0  0  0  0  0  0  0  0  0  0
   -3.1180   -0.4192    1.4567 H   0  0  0  0  0  0  0  0  0  0  0  0
   -3.1936    1.1900    0.7792 H   0  0  0  0  0  0  0  0  0  0  0  0
   -3.9154    0.0250   -1.5038 H   0  0  0  0  0  0  0  0  0  0  0  0
   -6.8136   -3.8999   -3.9485 H   0  0  0  0  0  0  0  0  0  0  0  0
   -4.7783   -4.3952   -2.4477 H   0  0  0  0  0  0  0  0  0  0  0  0
    2.8009   -0.3591    1.9017 H   0  0  0  0  0  0  0  0  0  0  0  0
  1  2  1  0  0  0  0
  1 26  1  0  0  0  0
  1 27  1  0  0  0  0
  1 28  1  0  0  0  0
  2 18  1  0  0  0  0
  2 29  1  0  0  0  0
  2 30  1  0  0  0  0
  3 18  1  0  0  0  0
  3 17  1  0  0  0  0
  3  4  2  0  0  0  0
  4 19  1  0  0  0  0
  4 32  1  0  0  0  0
  5  6  1  0  0  0  0
  5 33  1  0  0  0  0
  5 19  2  0  0  0  0
  6  7  1  0  0  0  0
  6 17  2  0  0  0  0
  7 20  1  0  0  0  0
  7 23  2  0  0  0  0
  8 20  1  0  0  0  0
  8  9  1  0  0  0  0
  8 10  1  0  0  0  0
  8 11  1  0  0  0  0
  9 35  1  0  0  0  0
  9 36  1  0  0  0  0
  9 37  1  0  0  0  0
 10 38  1  0  0  0  0
 10 39  1  0  0  0  0
 10 40  1  0  0  0  0
 11 12  1  0  0  0  0
 11 21  1  0  0  0  0
 11 41  1  1  0  0  0
 12 42  1  0  0  0  0
 12 43  1  0  0  0  0
 12 44  1  0  0  0  0
 13 21  1  0  0  0  0
 13 14  1  0  0  0  0
 13 24  2  0  0  0  0
 14 16  1  0  0  0  0
 14 22  2  0  0  0  0
 15 25  1  0  0  0  0
 15 46  1  0  0  0  0
 15 16  2  0  0  0  0
 16 47  1  0  0  0  0
 17 48  1  0  0  0  0
 18 31  1  0  0  0  0
 20 34  1  0  0  0  0
 21 45  1  0  0  0  0
 22 25  1  0  0  0  0
M  END
>  <score>
0.4442136287689209

$$$$
Z3668950551
 OpenBabel08202115463D

 57 59  0  0  0  0  0  0  0  0999 V2000
    5.8863    2.0463    2.8224 C   0  0  0  0  0  0  0  0  0  0  0  0
    4.8330    0.9330    2.7767 C   0  0  0  0  0  0  0  0  0  0  0  0
    4.0623    0.8681    4.0965 C   0  0  0  0  0  0  0  0  0  0  0  0
    5.5048   -0.4280    2.5785 C   0  0  0  0  0  0  0  0  0  0  0  0
    3.8885    1.2586    1.6184 C   0  0  1  0  0  0  0  0  0  0  0  0
    2.7542    0.1848    1.5801 C   0  0  0  0  0  0  0  0  0  0  0  0
    1.6485    0.5040    0.5352 C   0  0  0  0  0  0  0  0  0  0  0  0
    1.0991    1.9433    0.7305 C   0  0  2  0  0  0  0  0  0  0  0  0
    0.1548    2.2689   -0.4279 C   0  0  2  0  0  0  0  0  0  0  0  0
   -1.0613    1.3521   -0.3835 C   0  0  0  0  0  0  0  0  0  0  0  0
   -2.4838   -0.0936   -1.8073 C   0  0  0  0  0  0  0  0  0  0  0  0
   -2.6569   -0.4952   -3.1189 C   0  0  0  0  0  0  0  0  0  0  0  0
   -3.6762   -1.3797   -3.4128 C   0  0  0  0  0  0  0  0  0  0  0  0
   -4.4846   -1.8292   -2.3834 C   0  0  0  0  0  0  0  0  0  0  0  0
   -5.3101   -4.0771   -2.6785 C   0  0  0  0  0  0  0  0  0  0  0  0
   -6.3093   -4.9806   -2.9060 C   0  0  0  0  0  0  0  0  0  0  0  0
   -7.6214   -4.5419   -3.0936 C   0  0  0  0  0  0  0  0  0  0  0  0
   -7.8448   -3.1638   -3.0442 C   0  0  0  0  0  0  0  0  0  0  0  0
   -6.8122   -2.2980   -2.7997 C   0  0  0  0  0  0  0  0  0  0  0  0
   -3.3394   -0.5894   -0.8419 C   0  0  0  0  0  0  0  0  0  0  0  0
    2.2335    3.0171    0.7689 C   0  0  0  0  0  0  0  0  0  0  0  0
    3.3391    2.6980    1.8137 C   0  0  0  0  0  0  0  0  0  0  0  0
    0.8601    2.1401   -1.6517 O   0  0  0  0  0  0  0  0  0  0  0  0
   -1.6587    1.1352    0.6690 O   0  0  0  0  0  0  0  0  0  0  0  0
   -8.5423   -5.3356   -3.2941 O   0  0  0  0  0  0  0  0  0  0  0  0
   -1.4301    0.8019   -1.5713 N   0  0  0  0  0  0  0  0  0  0  0  0
   -5.5615   -2.7561   -2.6263 N   0  0  0  0  0  0  0  0  0  0  0  0
   -4.3310   -1.4449   -1.1082 N   0  0  0  0  0  0  0  0  0  0  0  0
    6.3622    2.1271    1.8674 H   0  0  0  0  0  0  0  0  0  0  0  0
    6.6187    1.8137    3.5670 H   0  0  0  0  0  0  0  0  0  0  0  0
    5.4132    2.9749    3.0646 H   0  0  0  0  0  0  0  0  0  0  0  0
    3.7332    1.8498    4.3665 H   0  0  0  0  0  0  0  0  0  0  0  0
    4.7010    0.4828    4.8636 H   0  0  0  0  0  0  0  0  0  0  0  0
    3.2137    0.2265    3.9825 H   0  0  0  0  0  0  0  0  0  0  0  0
    6.1542   -0.6294    3.4047 H   0  0  0  0  0  0  0  0  0  0  0  0
    6.0740   -0.4159    1.6725 H   0  0  0  0  0  0  0  0  0  0  0  0
    4.7559   -1.1899    2.5198 H   0  0  0  0  0  0  0  0  0  0  0  0
    4.4286    1.2200    0.6955 H   0  0  0  0  0  0  0  0  0  0  0  0
    3.1895   -0.7619    1.3368 H   0  0  0  0  0  0  0  0  0  0  0  0
    2.3024    0.1319    2.5486 H   0  0  0  0  0  0  0  0  0  0  0  0
    2.0608    0.4171   -0.4483 H   0  0  0  0  0  0  0  0  0  0  0  0
    0.8466   -0.1952    0.6494 H   0  0  0  0  0  0  0  0  0  0  0  0
    0.5590    1.9819    1.6533 H   0  0  0  0  0  0  0  0  0  0  0  0
   -0.1817    3.2779   -0.3107 H   0  0  0  0  0  0  0  0  0  0  0  0
    1.2776    1.2766   -1.6916 H   0  0  0  0  0  0  0  0  0  0  0  0
   -0.8984    1.0609   -2.3527 H   0  0  0  0  0  0  0  0  0  0  0  0
   -2.0319   -0.1382   -3.8696 H   0  0  0  0  0  0  0  0  0  0  0  0
   -3.8332   -1.7019   -4.3891 H   0  0  0  0  0  0  0  0  0  0  0  0
   -4.3365   -4.4167   -2.5430 H   0  0  0  0  0  0  0  0  0  0  0  0
   -6.0922   -5.9972   -2.9395 H   0  0  0  0  0  0  0  0  0  0  0  0
   -8.8043   -2.7918   -3.1944 H   0  0  0  0  0  0  0  0  0  0  0  0
   -6.9983   -1.2761   -2.7478 H   0  0  0  0  0  0  0  0  0  0  0  0
   -3.2047   -0.2810    0.1421 H   0  0  0  0  0  0  0  0  0  0  0  0
    2.6853    3.0700   -0.1996 H   0  0  0  0  0  0  0  0  0  0  0  0
    1.7982    3.9638    1.0121 H   0  0  0  0  0  0  0  0  0  0  0  0
    4.1410    3.3973    1.6994 H   0  0  0  0  0  0  0  0  0  0  0  0
    2.9269    2.7849    2.7972 H   0  0  0  0  0  0  0  0  0  0  0  0
  1  2  1  0  0  0  0
  1 29  1  0  0  0  0
  1 30  1  0  0  0  0
  1 31  1  0  0  0  0
  2  3  1  0  0  0  0
  2  4  1  0  0  0  0
  2  5  1  0  0  0  0
  3 32  1  0  0  0  0
  3 33  1  0  0  0  0
  3 34  1  0  0  0  0
  4 35  1  0  0  0  0
  4 36  1  0  0  0  0
  4 37  1  0  0  0  0
  5  6  1  0  0  0  0
  5 22  1  0  0  0  0
  5 38  1  6  0  0  0
  6  7  1  0  0  0  0
  6 39  1  0  0  0  0
  6 40  1  0  0  0  0
  7  8  1  0  0  0  0
  7 41  1  0  0  0  0
  7 42  1  0  0  0  0
  8  9  1  0  0  0  0
  8 21  1  0  0  0  0
  8 43  1  1  0  0  0
  9 23  1  0  0  0  0
  9 10  1  0  0  0  0
  9 44  1  1  0  0  0
 10 26  1  0  0  0  0
 10 24  2  0  0  0  0
 11 26  1  0  0  0  0
 11 20  1  0  0  0  0
 11 12  2  0  0  0  0
 12 13  1  0  0  0  0
 12 47  1  0  0  0  0
 13 48  1  0  0  0  0
 13 14  2  0  0  0  0
 14 27  1  0  0  0  0
 14 28  1  0  0  0  0
 15 27  1  0  0  0  0
 15 49  1  0  0  0  0
 15 16  2  0  0  0  0
 16 17  1  0  0  0  0
 16 50  1  0  0  0  0
 17 18  1  0  0  0  0
 17 25  2  0  0  0  0
 18 51  1  0  0  0  0
 18 19  2  0  0  0  0
 19 27  1  0  0  0  0
 19 52  1  0  0  0  0
 20 53  1  0  0  0  0
 20 28  2  0  0  0  0
 21 22  1  0  0  0  0
 21 54  1  0  0  0  0
 21 55  1  0  0  0  0
 22 56  1  0  0  0  0
 22 57  1  0  0  0  0
 23 45  1  0  0  0  0
 26 46  1  0  0  0  0
M  END
>  <score>
0.44425863027572632

$$$$
PV-003261048525
 OpenBabel08202115463D

 48 51  0  0  0  0  0  0  0  0999 V2000
   -7.0140   -3.3375   -3.7924 C   0  0  0  0  0  0  0  0  0  0  0  0
   -5.7748   -2.7895   -3.1366 C   0  0  0  0  0  0  0  0  0  0  0  0
   -4.8331   -3.3951   -2.3570 C   0  0  0  0  0  0  0  0  0  0  0  0
   -3.8207   -2.5002   -1.9319 C   0  0  0  0  0  0  0  0  0  0  0  0
   -4.0059   -1.2348   -2.4070 C   0  0  0  0  0  0  0  0  0  0  0  0
   -3.1835   -0.0012   -2.2135 C   0  0  0  0  0  0  0  0  0  0  0  0
   -1.3138    1.0411   -1.0311 C   0  0  1  0  0  0  0  0  0  0  0  0
   -1.1640    1.3025    0.4674 C   0  0  0  0  0  0  0  0  0  0  0  0
    0.1315    0.4849    0.4740 C   0  0  1  0  0  0  0  0  0  0  0  0
    0.1873    0.7625   -1.0316 C   0  0  1  0  0  0  0  0  0  0  0  0
    0.5180   -0.5696   -0.3353 C   0  0  0  0  0  0  0  0  0  0  0  0
    1.7152   -0.1240    0.5333 C   0  0  0  0  0  0  0  0  0  0  0  0
    1.7491    1.7778    2.1767 C   0  0  0  0  0  0  0  0  0  0  0  0
    3.0878    2.4662    2.1137 C   0  0  2  0  0  0  0  0  0  0  0  0
    4.5581    2.2640    3.5707 C   0  0  0  0  0  0  0  0  0  0  0  0
    4.2831    1.5103    2.2587 C   0  0  0  0  0  0  0  0  0  0  0  0
    3.9161    0.0225    2.4222 C   0  0  0  0  0  0  0  0  0  0  0  0
    5.3693    1.6551    1.1823 C   0  0  0  0  0  0  0  0  0  0  0  0
   -3.4590    1.0319   -2.8011 O   0  0  0  0  0  0  0  0  0  0  0  0
    1.0985    1.7575    3.2207 O   0  0  0  0  0  0  0  0  0  0  0  0
    3.4465    3.1616    3.3384 O   0  0  0  0  0  0  0  0  0  0  0  0
   -2.1491   -0.1002   -1.3736 N   0  0  0  0  0  0  0  0  0  0  0  0
    1.2883    1.1872    1.0588 N   0  0  0  0  0  0  0  0  0  0  0  0
   -5.4243   -1.1258   -3.3662 S   0  0  0  0  0  0  0  0  0  0  0  0
   -6.9764   -3.1449   -4.8442 H   0  0  0  0  0  0  0  0  0  0  0  0
   -7.8776   -2.8641   -3.3740 H   0  0  0  0  0  0  0  0  0  0  0  0
   -7.0689   -4.3929   -3.6250 H   0  0  0  0  0  0  0  0  0  0  0  0
   -4.8560   -4.4033   -2.1028 H   0  0  0  0  0  0  0  0  0  0  0  0
   -3.0235   -2.7774   -1.3241 H   0  0  0  0  0  0  0  0  0  0  0  0
   -1.9459   -0.9718   -0.9744 H   0  0  0  0  0  0  0  0  0  0  0  0
   -1.6147    1.8901   -1.6087 H   0  0  0  0  0  0  0  0  0  0  0  0
   -1.2431    0.4334    1.0865 H   0  0  0  0  0  0  0  0  0  0  0  0
   -1.7938    2.0757    0.8551 H   0  0  0  0  0  0  0  0  0  0  0  0
    0.0185   -0.5446    0.7426 H   0  0  0  0  0  0  0  0  0  0  0  0
    0.7379    1.0066   -1.9160 H   0  0  0  0  0  0  0  0  0  0  0  0
    0.7966   -1.3269   -1.0379 H   0  0  0  0  0  0  0  0  0  0  0  0
   -0.2981   -0.9192    0.2619 H   0  0  0  0  0  0  0  0  0  0  0  0
    1.8891   -0.8171    1.3296 H   0  0  0  0  0  0  0  0  0  0  0  0
    2.6022   -0.0289   -0.0576 H   0  0  0  0  0  0  0  0  0  0  0  0
    3.1320    3.0820    1.2398 H   0  0  0  0  0  0  0  0  0  0  0  0
    5.5090    2.7540    3.5941 H   0  0  0  0  0  0  0  0  0  0  0  0
    4.4466    1.6587    4.4460 H   0  0  0  0  0  0  0  0  0  0  0  0
    4.7082   -0.4870    2.9302 H   0  0  0  0  0  0  0  0  0  0  0  0
    3.7706   -0.4169    1.4575 H   0  0  0  0  0  0  0  0  0  0  0  0
    3.0147   -0.0616    2.9926 H   0  0  0  0  0  0  0  0  0  0  0  0
    6.1543    1.0414    1.5723 H   0  0  0  0  0  0  0  0  0  0  0  0
    5.6848    2.6728    1.0835 H   0  0  0  0  0  0  0  0  0  0  0  0
    5.0279    1.2935    0.2350 H   0  0  0  0  0  0  0  0  0  0  0  0
  1  2  1  0  0  0  0
  1 25  1  0  0  0  0
  1 26  1  0  0  0  0
  1 27  1  0  0  0  0
  2 24  1  0  0  0  0
  2  3  2  0  0  0  0
  3  4  1  0  0  0  0
  3 28  1  0  0  0  0
  4 29  1  0  0  0  0
  4  5  2  0  0  0  0
  5  6  1  0  0  0  0
  5 24  1  0  0  0  0
  6 22  1  0  0  0  0
  6 19  2  0  0  0  0
  7 22  1  0  0  0  0
  7  8  1  0  0  0  0
  7 10  1  0  0  0  0
  7 31  1  6  0  0  0
  8  9  1  0  0  0  0
  8 32  1  0  0  0  0
  8 33  1  0  0  0  0
  9 10  1  0  0  0  0
  9 23  1  0  0  0  0
  9 34  1  1  0  0  0
 10 11  1  0  0  0  0
 10 35  1  6  0  0  0
 11 12  1  0  0  0  0
 11 36  1  0  0  0  0
 11 37  1  0  0  0  0
 12 23  1  0  0  0  0
 12 38  1  0  0  0  0
 12 39  1  0  0  0  0
 13 23  1  0  0  0  0
 13 14  1  0  0  0  0
 13 20  2  0  0  0  0
 14 21  1  0  0  0  0
 14 16  1  0  0  0  0
 14 40  1  6  0  0  0
 15 21  1  0  0  0  0
 15 16  1  0  0  0  0
 15 41  1  0  0  0  0
 15 42  1  0  0  0  0
 16 17  1  0  0  0  0
 16 18  1  0  0  0  0
 17 43  1  0  0  0  0
 17 44  1  0  0  0  0
 17 45  1  0  0  0  0
 18 46  1  0  0  0  0
 18 47  1  0  0  0  0
 18 48  1  0  0  0  0
 22 30  1  0  0  0  0
M  END
>  <score>
0.44434446096420288

$$$$
Z3384574518
 OpenBabel08202115463D

 42 44  0  0  0  0  0  0  0  0999 V2000
   -7.6994   -2.3921   -1.8997 C   0  0  0  0  0  0  0  0  0  0  0  0
   -6.5576   -2.4474   -2.9014 C   0  0  0  0  0  0  0  0  0  0  0  0
   -5.2049   -2.2746   -2.2639 C   0  0  0  0  0  0  0  0  0  0  0  0
   -4.3929   -3.2890   -1.8575 C   0  0  0  0  0  0  0  0  0  0  0  0
   -3.5495   -1.0478   -1.5075 C   0  0  0  0  0  0  0  0  0  0  0  0
   -2.8190    0.1899   -1.0765 C   0  0  0  0  0  0  0  0  0  0  0  0
   -0.6913    0.8651   -0.3067 C   0  0  0  0  0  0  0  0  0  0  0  0
    0.6261    0.3856    0.1717 C   0  0  0  0  0  0  0  0  0  0  0  0
    0.8979   -0.9706    0.2185 C   0  0  0  0  0  0  0  0  0  0  0  0
    3.0009   -0.5975    1.0327 C   0  0  0  0  0  0  0  0  0  0  0  0
    2.8154    0.7718    1.0152 C   0  0  0  0  0  0  0  0  0  0  0  0
    4.0991    2.0512    2.8459 C   0  0  0  0  0  0  0  0  0  0  0  0
    5.5266    1.7332    3.2225 C   0  0  0  0  0  0  0  0  0  0  0  0
    6.2310    1.9611    1.0171 C   0  0  0  0  0  0  0  0  0  0  0  0
    4.8385    2.2909    0.5386 C   0  0  0  0  0  0  0  0  0  0  0  0
    1.6034    1.2731    0.5780 C   0  0  0  0  0  0  0  0  0  0  0  0
   -2.9539   -2.6387   -1.1888 S   0  0  0  0  0  0  0  0  0  0  0  0
   -1.4702   -0.1362   -0.6872 O   0  0  0  0  0  0  0  0  0  0  0  0
   -0.9902    2.0309   -0.3349 O   0  0  0  0  0  0  0  0  0  0  0  0
    6.4464    2.3793    2.3553 O   0  0  0  0  0  0  0  0  0  0  0  0
    2.0666   -1.4707    0.6442 N   0  0  0  0  0  0  0  0  0  0  0  0
    3.8667    1.6614    1.4452 N   0  0  0  0  0  0  0  0  0  0  0  0
   -4.7272   -1.0062   -2.0643 N   0  0  0  0  0  0  0  0  0  0  0  0
   -8.6098   -2.6857   -2.3792 H   0  0  0  0  0  0  0  0  0  0  0  0
   -7.7986   -1.3940   -1.5270 H   0  0  0  0  0  0  0  0  0  0  0  0
   -7.4936   -3.0577   -1.0876 H   0  0  0  0  0  0  0  0  0  0  0  0
   -6.6973   -1.6675   -3.6205 H   0  0  0  0  0  0  0  0  0  0  0  0
   -6.5828   -3.3966   -3.3946 H   0  0  0  0  0  0  0  0  0  0  0  0
   -4.6117   -4.3024   -1.9399 H   0  0  0  0  0  0  0  0  0  0  0  0
   -3.3296    0.6298   -0.2455 H   0  0  0  0  0  0  0  0  0  0  0  0
   -2.7934    0.8856   -1.8891 H   0  0  0  0  0  0  0  0  0  0  0  0
    0.1595   -1.6341   -0.0917 H   0  0  0  0  0  0  0  0  0  0  0  0
    3.9142   -0.9675    1.3652 H   0  0  0  0  0  0  0  0  0  0  0  0
    3.4322    1.5088    3.4830 H   0  0  0  0  0  0  0  0  0  0  0  0
    3.9255    3.1010    2.9581 H   0  0  0  0  0  0  0  0  0  0  0  0
    5.7036    2.0620    4.2253 H   0  0  0  0  0  0  0  0  0  0  0  0
    5.6752    0.6753    3.1620 H   0  0  0  0  0  0  0  0  0  0  0  0
    6.3744    0.9023    0.9589 H   0  0  0  0  0  0  0  0  0  0  0  0
    6.9393    2.4528    0.3834 H   0  0  0  0  0  0  0  0  0  0  0  0
    4.7006    1.9152   -0.4538 H   0  0  0  0  0  0  0  0  0  0  0  0
    4.6987    3.3517    0.5416 H   0  0  0  0  0  0  0  0  0  0  0  0
    1.4309    2.2985    0.5554 H   0  0  0  0  0  0  0  0  0  0  0  0
  1  2  1  0  0  0  0
  1 24  1  0  0  0  0
  1 25  1  0  0  0  0
  1 26  1  0  0  0  0
  2  3  1  0  0  0  0
  2 27  1  0  0  0  0
  2 28  1  0  0  0  0
  3 23  1  0  0  0  0
  3  4  2  0  0  0  0
  4 17  1  0  0  0  0
  4 29  1  0  0  0  0
  5 17  1  0  0  0  0
  5  6  1  0  0  0  0
  5 23  2  0  0  0  0
  6 18  1  0  0  0  0
  6 30  1  0  0  0  0
  6 31  1  0  0  0  0
  7 18  1  0  0  0  0
  7  8  1  0  0  0  0
  7 19  2  0  0  0  0
  8 16  1  0  0  0  0
  8  9  2  0  0  0  0
  9 21  1  0  0  0  0
  9 32  1  0  0  0  0
 10 11  1  0  0  0  0
 10 33  1  0  0  0  0
 10 21  2  0  0  0  0
 11 22  1  0  0  0  0
 11 16  2  0  0  0  0
 12 22  1  0  0  0  0
 12 13  1  0  0  0  0
 12 34  1  0  0  0  0
 12 35  1  0  0  0  0
 13 20  1  0  0  0  0
 13 36  1  0  0  0  0
 13 37  1  0  0  0  0
 14 20  1  0  0  0  0
 14 15  1  0  0  0  0
 14 38  1  0  0  0  0
 14 39  1  0  0  0  0
 15 22  1  0  0  0  0
 15 40  1  0  0  0  0
 15 41  1  0  0  0  0
 16 42  1  0  0  0  0
M  END
>  <score>
0.44447898864746094

$$$$
Z3359099925
 OpenBabel08202115463D

 47 48  0  0  0  0  0  0  0  0999 V2000
    5.2925   -0.7775    3.6718 C   0  0  0  0  0  0  0  0  0  0  0  0
    4.3319    0.2610    3.1252 C   0  0  0  0  0  0  0  0  0  0  0  0
    4.0101   -0.0174    1.6773 C   0  0  0  0  0  0  0  0  0  0  0  0
    3.3734    2.2833    1.7621 C   0  0  0  0  0  0  0  0  0  0  0  0
    1.7767    0.6703    0.9870 C   0  0  0  0  0  0  0  0  0  0  0  0
    0.8863    1.6741    0.2635 C   0  0  0  0  0  0  0  0  0  0  0  0
    1.7040    2.4222   -0.7767 C   0  0  0  0  0  0  0  0  0  0  0  0
    0.2934    2.6524    1.2680 C   0  0  0  0  0  0  0  0  0  0  0  0
   -1.2508    1.5437   -0.9181 C   0  0  0  0  0  0  0  0  0  0  0  0
   -2.2325    0.5914   -1.4199 C   0  0  0  0  0  0  0  0  0  0  0  0
   -2.1322   -0.7652   -1.4163 C   0  0  0  0  0  0  0  0  0  0  0  0
   -3.2929   -1.3693   -2.0105 C   0  0  0  0  0  0  0  0  0  0  0  0
   -4.2148   -0.4195   -2.4214 C   0  0  0  0  0  0  0  0  0  0  0  0
   -4.9665   -2.6914   -2.8944 C   0  0  0  0  0  0  0  0  0  0  0  0
   -3.7342   -2.7120   -2.2905 C   0  0  0  0  0  0  0  0  0  0  0  0
    3.2126    1.0243    1.0137 N   0  0  0  0  0  0  0  0  0  0  0  0
   -0.1822    0.9366   -0.3940 N   0  0  0  0  0  0  0  0  0  0  0  0
   -7.3813   -3.9992   -3.0012 N   0  0  0  0  0  0  0  0  0  0  0  0
   -1.4393    2.7562   -0.9958 O   0  0  0  0  0  0  0  0  0  0  0  0
   -5.2602   -5.2420   -3.0445 O   0  0  0  0  0  0  0  0  0  0  0  0
   -5.9278   -3.8642   -4.9857 O   0  0  0  0  0  0  0  0  0  0  0  0
   -3.7292    1.1934   -2.1174 S   0  0  0  0  0  0  0  0  0  0  0  0
   -5.6148   -1.0841   -3.1469 S   0  0  0  0  0  0  0  0  0  0  0  0
   -5.8663   -4.0583   -3.5703 S   0  0  0  0  0  0  0  0  0  0  0  0
    5.1714   -0.8532    4.7322 H   0  0  0  0  0  0  0  0  0  0  0  0
    6.2975   -0.4863    3.4477 H   0  0  0  0  0  0  0  0  0  0  0  0
    5.0865   -1.7258    3.2209 H   0  0  0  0  0  0  0  0  0  0  0  0
    4.7796    1.2296    3.2052 H   0  0  0  0  0  0  0  0  0  0  0  0
    3.4274    0.2373    3.6965 H   0  0  0  0  0  0  0  0  0  0  0  0
    3.4647   -0.9366    1.6280 H   0  0  0  0  0  0  0  0  0  0  0  0
    4.9326   -0.1205    1.1449 H   0  0  0  0  0  0  0  0  0  0  0  0
    4.4142    2.5146    1.8524 H   0  0  0  0  0  0  0  0  0  0  0  0
    2.9464    2.1753    2.7372 H   0  0  0  0  0  0  0  0  0  0  0  0
    2.8765    3.0742    1.2401 H   0  0  0  0  0  0  0  0  0  0  0  0
    1.4346    0.5894    1.9976 H   0  0  0  0  0  0  0  0  0  0  0  0
    1.6760   -0.2766    0.4990 H   0  0  0  0  0  0  0  0  0  0  0  0
    1.0558    2.7867   -1.5461 H   0  0  0  0  0  0  0  0  0  0  0  0
    2.4278    1.7604   -1.2045 H   0  0  0  0  0  0  0  0  0  0  0  0
    2.2040    3.2462   -0.3119 H   0  0  0  0  0  0  0  0  0  0  0  0
   -0.3249    3.3596    0.7556 H   0  0  0  0  0  0  0  0  0  0  0  0
    1.0836    3.1689    1.7716 H   0  0  0  0  0  0  0  0  0  0  0  0
   -0.2954    2.1163    1.9828 H   0  0  0  0  0  0  0  0  0  0  0  0
   -0.1157   -0.0392   -0.4543 H   0  0  0  0  0  0  0  0  0  0  0  0
   -1.3229   -1.2950   -1.0343 H   0  0  0  0  0  0  0  0  0  0  0  0
   -7.9437   -3.2179   -3.1850 H   0  0  0  0  0  0  0  0  0  0  0  0
   -7.7358   -4.7446   -2.4729 H   0  0  0  0  0  0  0  0  0  0  0  0
   -3.1960   -3.5734   -2.0671 H   0  0  0  0  0  0  0  0  0  0  0  0
  1  2  1  0  0  0  0
  1 25  1  0  0  0  0
  1 26  1  0  0  0  0
  1 27  1  0  0  0  0
  2  3  1  0  0  0  0
  2 28  1  0  0  0  0
  2 29  1  0  0  0  0
  3 16  1  0  0  0  0
  3 30  1  0  0  0  0
  3 31  1  0  0  0  0
  4 16  1  0  0  0  0
  4 32  1  0  0  0  0
  4 33  1  0  0  0  0
  4 34  1  0  0  0  0
  5 16  1  0  0  0  0
  5  6  1  0  0  0  0
  5 35  1  0  0  0  0
  5 36  1  0  0  0  0
  6  7  1  0  0  0  0
  6  8  1  0  0  0  0
  6 17  1  0  0  0  0
  7 37  1  0  0  0  0
  7 38  1  0  0  0  0
  7 39  1  0  0  0  0
  8 40  1  0  0  0  0
  8 41  1  0  0  0  0
  8 42  1  0  0  0  0
  9 17  1  0  0  0  0
  9 10  1  0  0  0  0
  9 19  2  0  0  0  0
 10 22  1  0  0  0  0
 10 11  2  0  0  0  0
 11 12  1  0  0  0  0
 11 44  1  0  0  0  0
 12 15  1  0  0  0  0
 12 13  2  0  0  0  0
 13 22  1  0  0  0  0
 13 23  1  0  0  0  0
 14 23  1  0  0  0  0
 14 15  2  0  0  0  0
 15 47  1  0  0  0  0
 17 43  1  0  0  0  0
 18 45  1  0  0  0  0
 18 46  1  0  0  0  0
 24 14  1  0  0  0  0
 24 18  1  0  0  0  0
 24 20  2  0  0  0  0
 24 21  2  0  0  0  0
M  END
>  <score>
0.44454306364059448

$$$$
PV-003964483971
 OpenBabel08202115463D

 45 47  0  0  0  0  0  0  0  0999 V2000
   -7.9818   -4.0516   -3.1662 C   0  0  0  0  0  0  0  0  0  0  0  0
   -6.7568   -3.2114   -3.0503 C   0  0  0  0  0  0  0  0  0  0  0  0
   -6.2128   -2.5832   -1.9675 C   0  0  0  0  0  0  0  0  0  0  0  0
   -5.0332   -1.8739   -2.3275 C   0  0  0  0  0  0  0  0  0  0  0  0
   -4.1822   -1.0557   -1.3954 C   0  0  0  0  0  0  0  0  0  0  0  0
   -2.3889    0.5826   -1.2799 C   0  0  0  0  0  0  0  0  0  0  0  0
   -1.1617   -0.0652   -0.6235 C   0  0  2  0  0  0  0  0  0  0  0  0
   -0.2538    1.0222   -0.0962 C   0  0  0  0  0  0  0  0  0  0  0  0
    1.9291    1.2337    0.9661 C   0  0  0  0  0  0  0  0  0  0  0  0
    3.1140    0.5552    1.5372 C   0  0  0  0  0  0  0  0  0  0  0  0
    4.2556    1.0893    2.0053 C   0  0  0  0  0  0  0  0  0  0  0  0
    4.8482    2.4693    2.1688 C   0  0  0  0  0  0  0  0  0  0  0  0
    5.4976    2.7389    3.5609 C   0  0  0  0  0  0  0  0  0  0  0  0
    6.8987    2.4662    2.9699 C   0  0  0  0  0  0  0  0  0  0  0  0
    6.2630    2.6432    1.5589 C   0  0  0  0  0  0  0  0  0  0  0  0
    3.2670   -0.8466    1.7018 C   0  0  0  0  0  0  0  0  0  0  0  0
   -4.4233   -0.9960   -0.1970 O   0  0  0  0  0  0  0  0  0  0  0  0
   -0.4480   -0.9044   -1.5313 O   0  0  0  0  0  0  0  0  0  0  0  0
    1.8371    2.4501    0.9830 O   0  0  0  0  0  0  0  0  0  0  0  0
    5.0752    0.0998    2.4403 O   0  0  0  0  0  0  0  0  0  0  0  0
   -3.1599   -0.4173   -2.0035 N   0  0  0  0  0  0  0  0  0  0  0  0
    0.9785    0.4391    0.4375 N   0  0  0  0  0  0  0  0  0  0  0  0
    4.4316   -1.1397    2.2339 N   0  0  0  0  0  0  0  0  0  0  0  0
   -4.6952   -1.9719   -3.6027 N   0  0  0  0  0  0  0  0  0  0  0  0
   -5.7761   -2.8989   -4.4142 S   0  0  0  0  0  0  0  0  0  0  0  0
   -7.7013   -5.0732   -3.3166 H   0  0  0  0  0  0  0  0  0  0  0  0
   -8.5666   -3.7165   -3.9973 H   0  0  0  0  0  0  0  0  0  0  0  0
   -8.5572   -3.9686   -2.2679 H   0  0  0  0  0  0  0  0  0  0  0  0
   -6.6083   -2.6184   -1.0063 H   0  0  0  0  0  0  0  0  0  0  0  0
   -2.9365   -0.6277   -2.9342 H   0  0  0  0  0  0  0  0  0  0  0  0
   -3.0036    1.0223   -0.5225 H   0  0  0  0  0  0  0  0  0  0  0  0
   -2.0654    1.3408   -1.9621 H   0  0  0  0  0  0  0  0  0  0  0  0
   -1.5015   -0.6490    0.2063 H   0  0  0  0  0  0  0  0  0  0  0  0
   -0.4644   -1.8094   -1.2115 H   0  0  0  0  0  0  0  0  0  0  0  0
   -0.7576    1.5563    0.6821 H   0  0  0  0  0  0  0  0  0  0  0  0
   -0.0103    1.6953   -0.8915 H   0  0  0  0  0  0  0  0  0  0  0  0
    1.1121   -0.5314    0.4101 H   0  0  0  0  0  0  0  0  0  0  0  0
    4.1344    3.2036    1.8587 H   0  0  0  0  0  0  0  0  0  0  0  0
    5.3626    3.7384    3.9181 H   0  0  0  0  0  0  0  0  0  0  0  0
    5.2029    2.0452    4.3205 H   0  0  0  0  0  0  0  0  0  0  0  0
    7.2830    1.4872    3.1665 H   0  0  0  0  0  0  0  0  0  0  0  0
    7.6386    3.1974    3.2207 H   0  0  0  0  0  0  0  0  0  0  0  0
    6.4339    3.6045    1.1212 H   0  0  0  0  0  0  0  0  0  0  0  0
    6.5334    1.8793    0.8601 H   0  0  0  0  0  0  0  0  0  0  0  0
    2.5495   -1.5508    1.4354 H   0  0  0  0  0  0  0  0  0  0  0  0
  1  2  1  0  0  0  0
  1 26  1  0  0  0  0
  1 27  1  0  0  0  0
  1 28  1  0  0  0  0
  2 25  1  0  0  0  0
  2  3  2  0  0  0  0
  3  4  1  0  0  0  0
  3 29  1  0  0  0  0
  4  5  1  0  0  0  0
  4 24  2  0  0  0  0
  5 21  1  0  0  0  0
  5 17  2  0  0  0  0
  6 21  1  0  0  0  0
  6  7  1  0  0  0  0
  6 31  1  0  0  0  0
  6 32  1  0  0  0  0
  7 18  1  0  0  0  0
  7  8  1  0  0  0  0
  7 33  1  1  0  0  0
  8 22  1  0  0  0  0
  8 35  1  0  0  0  0
  8 36  1  0  0  0  0
  9 22  1  0  0  0  0
  9 10  1  0  0  0  0
  9 19  2  0  0  0  0
 10 16  1  0  0  0  0
 10 11  2  0  0  0  0
 11 12  1  0  0  0  0
 11 20  1  0  0  0  0
 12 13  1  0  0  0  0
 12 15  1  0  0  0  0
 12 38  1  0  0  0  0
 13 14  1  0  0  0  0
 13 39  1  0  0  0  0
 13 40  1  0  0  0  0
 14 15  1  0  0  0  0
 14 41  1  0  0  0  0
 14 42  1  0  0  0  0
 15 43  1  0  0  0  0
 15 44  1  0  0  0  0
 16 45  1  0  0  0  0
 16 23  2  0  0  0  0
 18 34  1  0  0  0  0
 21 30  1  0  0  0  0
 22 37  1  0  0  0  0
 23 20  1  0  0  0  0
 24 25  1  0  0  0  0
M  END
>  <score>
0.44467765092849731

$$$$
PV-003357180563
 OpenBabel08202115463D

 52 53  0  0  0  0  0  0  0  0999 V2000
   -7.9375   -1.9303   -3.4037 N   0  0  0  0  0  0  0  0  0  0  0  0
   -5.9184   -2.7498   -2.6330 N   0  0  0  0  0  0  0  0  0  0  0  0
   -2.5668   -0.3988   -1.6493 N   0  0  0  0  0  0  0  0  0  0  0  0
    1.7772    0.2405    1.1601 N   0  0  0  0  0  0  0  0  0  0  0  0
   -6.7130   -2.4706   -3.6701 C   0  0  0  0  0  0  0  0  0  0  0  0
   -4.5784   -3.2911   -2.8040 C   0  0  0  0  0  0  0  0  0  0  0  0
   -3.5233   -2.1992   -2.9823 C   0  0  0  0  0  0  0  0  0  0  0  0
   -3.3603   -1.4707   -1.6751 C   0  0  0  0  0  0  0  0  0  0  0  0
   -2.3782    0.4707   -0.4976 C   0  0  0  0  0  0  0  0  0  0  0  0
   -1.3362    1.5696   -0.6920 C   0  0  1  0  0  0  0  0  0  0  0  0
   -0.7789    2.2927    0.4939 C   0  0  0  0  0  0  0  0  0  0  0  0
    0.0895    1.3522   -0.2809 C   0  0  1  0  0  0  0  0  0  0  0  0
    0.6402    0.0425    0.2594 C   0  0  0  0  0  0  0  0  0  0  0  0
    3.0187    0.4412    0.7089 C   0  0  0  0  0  0  0  0  0  0  0  0
    4.0658    0.7282    1.7673 C   0  0  0  0  0  0  0  0  0  0  0  0
    4.5953   -0.5519    2.3005 C   0  0  0  0  0  0  0  0  0  0  0  0
    3.4196    1.5128    2.9071 C   0  0  0  0  0  0  0  0  0  0  0  0
    4.4913    1.9723    3.8915 C   0  0  0  0  0  0  0  0  0  0  0  0
    6.1898    1.9667    2.2141 C   0  0  0  0  0  0  0  0  0  0  0  0
    5.2020    1.5089    1.1390 C   0  0  0  0  0  0  0  0  0  0  0  0
   -6.3727   -2.6858   -4.8481 O   0  0  0  0  0  0  0  0  0  0  0  0
   -3.9429   -1.8547   -0.6618 O   0  0  0  0  0  0  0  0  0  0  0  0
    3.3122    0.3998   -0.4846 O   0  0  0  0  0  0  0  0  0  0  0  0
    5.4971    2.7211    3.2209 O   0  0  0  0  0  0  0  0  0  0  0  0
    3.7759   -1.2933    2.9527 F   0  0  0  0  0  0  0  0  0  0  0  0
   -8.1777   -1.6904   -2.4843 H   0  0  0  0  0  0  0  0  0  0  0  0
   -8.5767   -1.7822   -4.1316 H   0  0  0  0  0  0  0  0  0  0  0  0
   -6.2495   -2.5845   -1.7256 H   0  0  0  0  0  0  0  0  0  0  0  0
   -4.5705   -3.9201   -3.6696 H   0  0  0  0  0  0  0  0  0  0  0  0
   -4.3297   -3.8703   -1.9393 H   0  0  0  0  0  0  0  0  0  0  0  0
   -3.8393   -1.5131   -3.7402 H   0  0  0  0  0  0  0  0  0  0  0  0
   -2.5915   -2.6415   -3.2669 H   0  0  0  0  0  0  0  0  0  0  0  0
   -2.0736   -0.1804   -2.4675 H   0  0  0  0  0  0  0  0  0  0  0  0
   -2.0737   -0.1346    0.3305 H   0  0  0  0  0  0  0  0  0  0  0  0
   -3.3155    0.9360   -0.2744 H   0  0  0  0  0  0  0  0  0  0  0  0
   -1.4724    2.1666   -1.5694 H   0  0  0  0  0  0  0  0  0  0  0  0
   -1.1029    2.0318    1.4797 H   0  0  0  0  0  0  0  0  0  0  0  0
   -0.6034    3.3470    0.4430 H   0  0  0  0  0  0  0  0  0  0  0  0
    0.7861    1.8577   -0.9166 H   0  0  0  0  0  0  0  0  0  0  0  0
    0.9569   -0.5622   -0.5646 H   0  0  0  0  0  0  0  0  0  0  0  0
   -0.1373   -0.4617    0.7944 H   0  0  0  0  0  0  0  0  0  0  0  0
    1.6223    0.2253    2.1277 H   0  0  0  0  0  0  0  0  0  0  0  0
    5.4092   -0.3174    2.9543 H   0  0  0  0  0  0  0  0  0  0  0  0
    4.9567   -1.1225    1.4706 H   0  0  0  0  0  0  0  0  0  0  0  0
    2.9142    2.3673    2.5080 H   0  0  0  0  0  0  0  0  0  0  0  0
    2.7161    0.8866    3.4149 H   0  0  0  0  0  0  0  0  0  0  0  0
    4.9382    1.1152    4.3504 H   0  0  0  0  0  0  0  0  0  0  0  0
    4.0391    2.5849    4.6432 H   0  0  0  0  0  0  0  0  0  0  0  0
    6.6473    1.1103    2.6638 H   0  0  0  0  0  0  0  0  0  0  0  0
    6.9432    2.5802    1.7660 H   0  0  0  0  0  0  0  0  0  0  0  0
    5.7113    0.8854    0.4342 H   0  0  0  0  0  0  0  0  0  0  0  0
    4.8054    2.3661    0.6362 H   0  0  0  0  0  0  0  0  0  0  0  0
  1 26  1  0  0  0  0
  1 27  1  0  0  0  0
  2 28  1  0  0  0  0
  3 33  1  0  0  0  0
  4 42  1  0  0  0  0
  5  1  1  0  0  0  0
  5  2  1  0  0  0  0
  5 21  2  0  0  0  0
  6  2  1  0  0  0  0
  6  7  1  0  0  0  0
  6 29  1  0  0  0  0
  6 30  1  0  0  0  0
  7  8  1  0  0  0  0
  7 31  1  0  0  0  0
  7 32  1  0  0  0  0
  8  3  1  0  0  0  0
  8 22  2  0  0  0  0
  9  3  1  0  0  0  0
  9 10  1  0  0  0  0
  9 34  1  0  0  0  0
  9 35  1  0  0  0  0
 10 11  1  0  0  0  0
 10 12  1  0  0  0  0
 10 36  1  6  0  0  0
 11 12  1  0  0  0  0
 11 37  1  0  0  0  0
 11 38  1  0  0  0  0
 12 13  1  0  0  0  0
 12 39  1  6  0  0  0
 13  4  1  0  0  0  0
 13 40  1  0  0  0  0
 13 41  1  0  0  0  0
 14  4  1  0  0  0  0
 14 15  1  0  0  0  0
 14 23  2  0  0  0  0
 15 16  1  0  0  0  0
 15 17  1  0  0  0  0
 15 20  1  0  0  0  0
 16 25  1  0  0  0  0
 16 43  1  0  0  0  0
 16 44  1  0  0  0  0
 17 18  1  0  0  0  0
 17 45  1  0  0  0  0
 17 46  1  0  0  0  0
 18 24  1  0  0  0  0
 18 47  1  0  0  0  0
 18 48  1  0  0  0  0
 19 24  1  0  0  0  0
 19 20  1  0  0  0  0
 19 49  1  0  0  0  0
 19 50  1  0  0  0  0
 20 51  1  0  0  0  0
 20 52  1  0  0  0  0
M  END
>  <score>
0.44470316171646118

$$$$
PV-002740239815
 OpenBabel08202115463D

 47 49  0  0  0  0  0  0  0  0999 V2000
    3.9483   -0.2577    1.9392 C   0  0  0  0  0  0  0  0  0  0  0  0
    0.9743    1.0156    0.6754 C   0  0  0  0  0  0  0  0  0  0  0  0
   -0.8879   -0.2917   -0.2650 C   0  0  0  0  0  0  0  0  0  0  0  0
   -2.9047   -1.1487   -1.4294 C   0  0  0  0  0  0  0  0  0  0  0  0
   -3.2573   -2.3335   -0.8020 C   0  0  0  0  0  0  0  0  0  0  0  0
   -4.0434   -3.2583   -1.4631 C   0  0  0  0  0  0  0  0  0  0  0  0
   -4.4837   -2.9985   -2.7516 C   0  0  0  0  0  0  0  0  0  0  0  0
   -5.3492   -3.9678   -3.5215 C   0  0  0  0  0  0  0  0  0  0  0  0
   -6.6851   -3.3344   -3.8746 C   0  0  0  0  0  0  0  0  0  0  0  0
   -6.9326   -2.1652   -3.0359 C   0  0  0  0  0  0  0  0  0  0  0  0
   -4.1323   -1.8173   -3.3772 C   0  0  0  0  0  0  0  0  0  0  0  0
   -3.3439   -0.8899   -2.7141 C   0  0  0  0  0  0  0  0  0  0  0  0
    2.6738    1.8769    1.5008 C   0  0  0  0  0  0  0  0  0  0  0  0
    4.8541    3.1339    1.2836 C   0  0  0  0  0  0  0  0  0  0  0  0
    6.0780    2.7695    2.0874 C   0  0  0  0  0  0  0  0  0  0  0  0
    4.9148    2.8890    4.0986 C   0  0  0  0  0  0  0  0  0  0  0  0
    3.6348    3.2579    3.3873 C   0  0  0  0  0  0  0  0  0  0  0  0
    2.8673    0.5640    1.4052 N   0  0  0  0  0  0  0  0  0  0  0  0
    1.7674   -0.0229    0.8631 N   0  0  0  0  0  0  0  0  0  0  0  0
   -0.3169    0.8869    0.1233 N   0  0  0  0  0  0  0  0  0  0  0  0
   -2.1069   -0.1454   -0.8503 N   0  0  0  0  0  0  0  0  0  0  0  0
   -7.1685   -1.2478   -2.4070 N   0  0  0  0  0  0  0  0  0  0  0  0
    1.4790    2.2060    1.0456 N   0  0  0  0  0  0  0  0  0  0  0  0
    3.6584    2.7035    2.0235 N   0  0  0  0  0  0  0  0  0  0  0  0
   -0.3413   -1.3898   -0.0970 O   0  0  0  0  0  0  0  0  0  0  0  0
    6.0536    3.3449    3.3837 O   0  0  0  0  0  0  0  0  0  0  0  0
    3.8604   -0.3156    3.0040 H   0  0  0  0  0  0  0  0  0  0  0  0
    4.8898    0.1813    1.6827 H   0  0  0  0  0  0  0  0  0  0  0  0
    3.8875   -1.2413    1.5224 H   0  0  0  0  0  0  0  0  0  0  0  0
   -0.8444    1.7050    0.0096 H   0  0  0  0  0  0  0  0  0  0  0  0
   -2.4714    0.7640   -0.8710 H   0  0  0  0  0  0  0  0  0  0  0  0
   -2.9302   -2.5265    0.1661 H   0  0  0  0  0  0  0  0  0  0  0  0
   -4.3046   -4.1489   -0.9940 H   0  0  0  0  0  0  0  0  0  0  0  0
   -5.5209   -4.8374   -2.9221 H   0  0  0  0  0  0  0  0  0  0  0  0
   -4.8452   -4.2489   -4.4225 H   0  0  0  0  0  0  0  0  0  0  0  0
   -7.4658   -4.0498   -3.7210 H   0  0  0  0  0  0  0  0  0  0  0  0
   -6.6723   -3.0347   -4.9017 H   0  0  0  0  0  0  0  0  0  0  0  0
   -4.4594   -1.6242   -4.3454 H   0  0  0  0  0  0  0  0  0  0  0  0
   -3.0827    0.0008   -3.1833 H   0  0  0  0  0  0  0  0  0  0  0  0
    4.8235    4.1931    1.1349 H   0  0  0  0  0  0  0  0  0  0  0  0
    4.8869    2.6409    0.3345 H   0  0  0  0  0  0  0  0  0  0  0  0
    6.1238    1.7047    2.1831 H   0  0  0  0  0  0  0  0  0  0  0  0
    6.9472    3.1193    1.5707 H   0  0  0  0  0  0  0  0  0  0  0  0
    4.9663    1.8244    4.1931 H   0  0  0  0  0  0  0  0  0  0  0  0
    4.9133    3.3342    5.0716 H   0  0  0  0  0  0  0  0  0  0  0  0
    3.5475    4.3232    3.3384 H   0  0  0  0  0  0  0  0  0  0  0  0
    2.8001    2.8554    3.9222 H   0  0  0  0  0  0  0  0  0  0  0  0
  1 18  1  0  0  0  0
  1 27  1  0  0  0  0
  1 28  1  0  0  0  0
  1 29  1  0  0  0  0
  2 20  1  0  0  0  0
  2 23  1  0  0  0  0
  2 19  2  0  0  0  0
  3 20  1  0  0  0  0
  3 21  1  0  0  0  0
  3 25  2  0  0  0  0
  4 21  1  0  0  0  0
  4 12  1  0  0  0  0
  4  5  2  0  0  0  0
  5  6  1  0  0  0  0
  5 32  1  0  0  0  0
  6 33  1  0  0  0  0
  6  7  2  0  0  0  0
  7  8  1  0  0  0  0
  7 11  1  0  0  0  0
  8  9  1  0  0  0  0
  8 34  1  0  0  0  0
  8 35  1  0  0  0  0
  9 10  1  0  0  0  0
  9 36  1  0  0  0  0
  9 37  1  0  0  0  0
 10 22  3  0  0  0  0
 11 38  1  0  0  0  0
 11 12  2  0  0  0  0
 12 39  1  0  0  0  0
 13 18  1  0  0  0  0
 13 24  1  0  0  0  0
 13 23  2  0  0  0  0
 14 24  1  0  0  0  0
 14 15  1  0  0  0  0
 14 40  1  0  0  0  0
 14 41  1  0  0  0  0
 15 26  1  0  0  0  0
 15 42  1  0  0  0  0
 15 43  1  0  0  0  0
 16 26  1  0  0  0  0
 16 17  1  0  0  0  0
 16 44  1  0  0  0  0
 16 45  1  0  0  0  0
 17 24  1  0  0  0  0
 17 46  1  0  0  0  0
 17 47  1  0  0  0  0
 18 19  1  0  0  0  0
 20 30  1  0  0  0  0
 21 31  1  0  0  0  0
M  END
>  <score>
0.44474315643310547

$$$$
PV-002996444984
 OpenBabel08202115463D

 49 51  0  0  0  0  0  0  0  0999 V2000
    5.1193    3.3229    2.8019 C   0  0  0  0  0  0  0  0  0  0  0  0
    4.7994    1.9691    2.1894 C   0  0  0  0  0  0  0  0  0  0  0  0
    4.4935    0.9604    3.2846 C   0  0  0  0  0  0  0  0  0  0  0  0
    5.9789    1.4889    1.3595 C   0  0  0  0  0  0  0  0  0  0  0  0
    2.2813    1.8487    1.7663 C   0  0  0  0  0  0  0  0  0  0  0  0
    1.4120    2.0986    0.5429 C   0  0  2  0  0  0  0  0  0  0  0  0
    0.6661    0.8407    0.1640 C   0  0  0  0  0  0  0  0  0  0  0  0
   -1.4896    0.0495   -0.7953 C   0  0  0  0  0  0  0  0  0  0  0  0
   -2.6311    0.4080   -1.4873 C   0  0  0  0  0  0  0  0  0  0  0  0
   -3.5822   -0.5509   -1.7992 C   0  0  0  0  0  0  0  0  0  0  0  0
   -3.3917   -1.8645   -1.4136 C   0  0  0  0  0  0  0  0  0  0  0  0
   -5.4230   -2.5838   -2.4286 C   0  0  0  0  0  0  0  0  0  0  0  0
   -6.3212   -3.7855   -2.4199 C   0  0  0  0  0  0  0  0  0  0  0  0
   -7.9241   -5.0305   -2.8581 C   0  0  0  0  0  0  0  0  0  0  0  0
   -2.2469   -2.2238   -0.7196 C   0  0  0  0  0  0  0  0  0  0  0  0
   -1.2984   -1.2679   -0.4085 C   0  0  0  0  0  0  0  0  0  0  0  0
    2.3599    2.5041   -0.5699 C   0  0  0  0  0  0  0  0  0  0  0  0
    3.7346    2.4724    0.0458 C   0  0  0  0  0  0  0  0  0  0  0  0
    3.6371    2.1051    1.3151 N   0  0  0  0  0  0  0  0  0  0  0  0
   -0.5164    1.0269   -0.4818 N   0  0  0  0  0  0  0  0  0  0  0  0
   -6.0564   -4.8653   -1.7083 N   0  0  0  0  0  0  0  0  0  0  0  0
   -7.1138   -5.6634   -2.0136 N   0  0  0  0  0  0  0  0  0  0  0  0
   -7.4549   -3.8296   -3.1422 N   0  0  0  0  0  0  0  0  0  0  0  0
    1.1117   -0.2637    0.4287 O   0  0  0  0  0  0  0  0  0  0  0  0
   -4.2499   -2.8835   -1.6562 O   0  0  0  0  0  0  0  0  0  0  0  0
    4.7739    2.7426   -0.5332 O   0  0  0  0  0  0  0  0  0  0  0  0
    5.3684    4.0162    2.0259 H   0  0  0  0  0  0  0  0  0  0  0  0
    5.9481    3.2244    3.4714 H   0  0  0  0  0  0  0  0  0  0  0  0
    4.2665    3.6813    3.3397 H   0  0  0  0  0  0  0  0  0  0  0  0
    4.4050   -0.0161    2.8563 H   0  0  0  0  0  0  0  0  0  0  0  0
    3.5742    1.2236    3.7649 H   0  0  0  0  0  0  0  0  0  0  0  0
    5.2858    0.9638    4.0037 H   0  0  0  0  0  0  0  0  0  0  0  0
    6.2858    2.2665    0.6917 H   0  0  0  0  0  0  0  0  0  0  0  0
    5.6899    0.6274    0.7946 H   0  0  0  0  0  0  0  0  0  0  0  0
    6.7911    1.2348    2.0081 H   0  0  0  0  0  0  0  0  0  0  0  0
    2.1801    0.8372    2.1004 H   0  0  0  0  0  0  0  0  0  0  0  0
    2.0157    2.5153    2.5600 H   0  0  0  0  0  0  0  0  0  0  0  0
    0.7119    2.8837    0.7390 H   0  0  0  0  0  0  0  0  0  0  0  0
   -0.7173    1.9441   -0.7623 H   0  0  0  0  0  0  0  0  0  0  0  0
   -2.7763    1.3971   -1.7740 H   0  0  0  0  0  0  0  0  0  0  0  0
   -4.4393   -0.2820   -2.3234 H   0  0  0  0  0  0  0  0  0  0  0  0
   -5.1424   -2.3508   -3.4345 H   0  0  0  0  0  0  0  0  0  0  0  0
   -5.9344   -1.7484   -1.9978 H   0  0  0  0  0  0  0  0  0  0  0  0
   -7.2575   -6.5678   -1.6645 H   0  0  0  0  0  0  0  0  0  0  0  0
   -8.8057   -5.4272   -3.2417 H   0  0  0  0  0  0  0  0  0  0  0  0
   -2.1016   -3.2129   -0.4329 H   0  0  0  0  0  0  0  0  0  0  0  0
   -0.4414   -1.5368    0.1156 H   0  0  0  0  0  0  0  0  0  0  0  0
    2.1284    3.4888   -0.9187 H   0  0  0  0  0  0  0  0  0  0  0  0
    2.2985    1.8130   -1.3845 H   0  0  0  0  0  0  0  0  0  0  0  0
  1  2  1  0  0  0  0
  1 27  1  0  0  0  0
  1 28  1  0  0  0  0
  1 29  1  0  0  0  0
  2  3  1  0  0  0  0
  2  4  1  0  0  0  0
  2 19  1  0  0  0  0
  3 30  1  0  0  0  0
  3 31  1  0  0  0  0
  3 32  1  0  0  0  0
  4 33  1  0  0  0  0
  4 34  1  0  0  0  0
  4 35  1  0  0  0  0
  5 19  1  0  0  0  0
  5  6  1  0  0  0  0
  5 36  1  0  0  0  0
  5 37  1  0  0  0  0
  6  7  1  0  0  0  0
  6 17  1  0  0  0  0
  6 38  1  1  0  0  0
  7 20  1  0  0  0  0
  7 24  2  0  0  0  0
  8 20  1  0  0  0  0
  8 16  1  0  0  0  0
  8  9  2  0  0  0  0
  9 10  1  0  0  0  0
  9 40  1  0  0  0  0
 10 41  1  0  0  0  0
 10 11  2  0  0  0  0
 11 25  1  0  0  0  0
 11 15  1  0  0  0  0
 12 25  1  0  0  0  0
 12 13  1  0  0  0  0
 12 42  1  0  0  0  0
 12 43  1  0  0  0  0
 13 23  1  0  0  0  0
 13 21  2  0  0  0  0
 14 22  1  0  0  0  0
 14 45  1  0  0  0  0
 14 23  2  0  0  0  0
 15 46  1  0  0  0  0
 15 16  2  0  0  0  0
 16 47  1  0  0  0  0
 17 18  1  0  0  0  0
 17 48  1  0  0  0  0
 17 49  1  0  0  0  0
 18 19  1  0  0  0  0
 18 26  2  0  0  0  0
 20 39  1  0  0  0  0
 21 22  1  0  0  0  0
 22 44  1  0  0  0  0
M  END
>  <score>
0.44474315643310547

$$$$
PV-002740239815
 OpenBabel08202115463D

 47 49  0  0  0  0  0  0  0  0999 V2000
    3.9483   -0.2577    1.9392 C   0  0  0  0  0  0  0  0  0  0  0  0
    0.9743    1.0156    0.6754 C   0  0  0  0  0  0  0  0  0  0  0  0
   -0.8879   -0.2917   -0.2650 C   0  0  0  0  0  0  0  0  0  0  0  0
   -2.9047   -1.1487   -1.4294 C   0  0  0  0  0  0  0  0  0  0  0  0
   -3.2573   -2.3335   -0.8020 C   0  0  0  0  0  0  0  0  0  0  0  0
   -4.0434   -3.2583   -1.4631 C   0  0  0  0  0  0  0  0  0  0  0  0
   -4.4837   -2.9985   -2.7516 C   0  0  0  0  0  0  0  0  0  0  0  0
   -5.3492   -3.9678   -3.5215 C   0  0  0  0  0  0  0  0  0  0  0  0
   -6.6851   -3.3344   -3.8746 C   0  0  0  0  0  0  0  0  0  0  0  0
   -6.9326   -2.1652   -3.0359 C   0  0  0  0  0  0  0  0  0  0  0  0
   -4.1323   -1.8173   -3.3772 C   0  0  0  0  0  0  0  0  0  0  0  0
   -3.3439   -0.8899   -2.7141 C   0  0  0  0  0  0  0  0  0  0  0  0
    2.6738    1.8769    1.5008 C   0  0  0  0  0  0  0  0  0  0  0  0
    4.8541    3.1339    1.2836 C   0  0  0  0  0  0  0  0  0  0  0  0
    6.0780    2.7695    2.0874 C   0  0  0  0  0  0  0  0  0  0  0  0
    4.9148    2.8890    4.0986 C   0  0  0  0  0  0  0  0  0  0  0  0
    3.6348    3.2579    3.3873 C   0  0  0  0  0  0  0  0  0  0  0  0
    2.8673    0.5640    1.4052 N   0  0  0  0  0  0  0  0  0  0  0  0
    1.7674   -0.0229    0.8631 N   0  0  0  0  0  0  0  0  0  0  0  0
   -0.3169    0.8869    0.1233 N   0  0  0  0  0  0  0  0  0  0  0  0
   -2.1069   -0.1454   -0.8503 N   0  0  0  0  0  0  0  0  0  0  0  0
   -7.1685   -1.2478   -2.4070 N   0  0  0  0  0  0  0  0  0  0  0  0
    1.4790    2.2060    1.0456 N   0  0  0  0  0  0  0  0  0  0  0  0
    3.6584    2.7035    2.0235 N   0  0  0  0  0  0  0  0  0  0  0  0
   -0.3413   -1.3898   -0.0970 O   0  0  0  0  0  0  0  0  0  0  0  0
    6.0536    3.3449    3.3837 O   0  0  0  0  0  0  0  0  0  0  0  0
    3.8604   -0.3156    3.0040 H   0  0  0  0  0  0  0  0  0  0  0  0
    4.8898    0.1813    1.6827 H   0  0  0  0  0  0  0  0  0  0  0  0
    3.8875   -1.2413    1.5224 H   0  0  0  0  0  0  0  0  0  0  0  0
   -0.8444    1.7050    0.0096 H   0  0  0  0  0  0  0  0  0  0  0  0
   -2.4714    0.7640   -0.8710 H   0  0  0  0  0  0  0  0  0  0  0  0
   -2.9302   -2.5265    0.1661 H   0  0  0  0  0  0  0  0  0  0  0  0
   -4.3046   -4.1489   -0.9940 H   0  0  0  0  0  0  0  0  0  0  0  0
   -5.5209   -4.8374   -2.9221 H   0  0  0  0  0  0  0  0  0  0  0  0
   -4.8452   -4.2489   -4.4225 H   0  0  0  0  0  0  0  0  0  0  0  0
   -7.4658   -4.0498   -3.7210 H   0  0  0  0  0  0  0  0  0  0  0  0
   -6.6723   -3.0347   -4.9017 H   0  0  0  0  0  0  0  0  0  0  0  0
   -4.4594   -1.6242   -4.3454 H   0  0  0  0  0  0  0  0  0  0  0  0
   -3.0827    0.0008   -3.1833 H   0  0  0  0  0  0  0  0  0  0  0  0
    4.8235    4.1931    1.1349 H   0  0  0  0  0  0  0  0  0  0  0  0
    4.8869    2.6409    0.3345 H   0  0  0  0  0  0  0  0  0  0  0  0
    6.1238    1.7047    2.1831 H   0  0  0  0  0  0  0  0  0  0  0  0
    6.9472    3.1193    1.5707 H   0  0  0  0  0  0  0  0  0  0  0  0
    4.9663    1.8244    4.1931 H   0  0  0  0  0  0  0  0  0  0  0  0
    4.9133    3.3342    5.0716 H   0  0  0  0  0  0  0  0  0  0  0  0
    3.5475    4.3232    3.3384 H   0  0  0  0  0  0  0  0  0  0  0  0
    2.8001    2.8554    3.9222 H   0  0  0  0  0  0  0  0  0  0  0  0
  1 18  1  0  0  0  0
  1 27  1  0  0  0  0
  1 28  1  0  0  0  0
  1 29  1  0  0  0  0
  2 20  1  0  0  0  0
  2 23  1  0  0  0  0
  2 19  2  0  0  0  0
  3 20  1  0  0  0  0
  3 21  1  0  0  0  0
  3 25  2  0  0  0  0
  4 21  1  0  0  0  0
  4 12  1  0  0  0  0
  4  5  2  0  0  0  0
  5  6  1  0  0  0  0
  5 32  1  0  0  0  0
  6 33  1  0  0  0  0
  6  7  2  0  0  0  0
  7  8  1  0  0  0  0
  7 11  1  0  0  0  0
  8  9  1  0  0  0  0
  8 34  1  0  0  0  0
  8 35  1  0  0  0  0
  9 10  1  0  0  0  0
  9 36  1  0  0  0  0
  9 37  1  0  0  0  0
 10 22  3  0  0  0  0
 11 38  1  0  0  0  0
 11 12  2  0  0  0  0
 12 39  1  0  0  0  0
 13 18  1  0  0  0  0
 13 24  1  0  0  0  0
 13 23  2  0  0  0  0
 14 24  1  0  0  0  0
 14 15  1  0  0  0  0
 14 40  1  0  0  0  0
 14 41  1  0  0  0  0
 15 26  1  0  0  0  0
 15 42  1  0  0  0  0
 15 43  1  0  0  0  0
 16 26  1  0  0  0  0
 16 17  1  0  0  0  0
 16 44  1  0  0  0  0
 16 45  1  0  0  0  0
 17 24  1  0  0  0  0
 17 46  1  0  0  0  0
 17 47  1  0  0  0  0
 18 19  1  0  0  0  0
 20 30  1  0  0  0  0
 21 31  1  0  0  0  0
M  END
>  <score>
0.44474315643310547

$$$$
PV-002996444984
 OpenBabel08202115463D

 49 51  0  0  0  0  0  0  0  0999 V2000
    5.1193    3.3229    2.8019 C   0  0  0  0  0  0  0  0  0  0  0  0
    4.7994    1.9691    2.1894 C   0  0  0  0  0  0  0  0  0  0  0  0
    4.4935    0.9604    3.2846 C   0  0  0  0  0  0  0  0  0  0  0  0
    5.9789    1.4889    1.3595 C   0  0  0  0  0  0  0  0  0  0  0  0
    2.2813    1.8487    1.7663 C   0  0  0  0  0  0  0  0  0  0  0  0
    1.4120    2.0986    0.5429 C   0  0  2  0  0  0  0  0  0  0  0  0
    0.6661    0.8407    0.1640 C   0  0  0  0  0  0  0  0  0  0  0  0
   -1.4896    0.0495   -0.7953 C   0  0  0  0  0  0  0  0  0  0  0  0
   -2.6311    0.4080   -1.4873 C   0  0  0  0  0  0  0  0  0  0  0  0
   -3.5822   -0.5509   -1.7992 C   0  0  0  0  0  0  0  0  0  0  0  0
   -3.3917   -1.8645   -1.4136 C   0  0  0  0  0  0  0  0  0  0  0  0
   -5.4230   -2.5838   -2.4286 C   0  0  0  0  0  0  0  0  0  0  0  0
   -6.3212   -3.7855   -2.4199 C   0  0  0  0  0  0  0  0  0  0  0  0
   -7.9241   -5.0305   -2.8581 C   0  0  0  0  0  0  0  0  0  0  0  0
   -2.2469   -2.2238   -0.7196 C   0  0  0  0  0  0  0  0  0  0  0  0
   -1.2984   -1.2679   -0.4085 C   0  0  0  0  0  0  0  0  0  0  0  0
    2.3599    2.5041   -0.5699 C   0  0  0  0  0  0  0  0  0  0  0  0
    3.7346    2.4724    0.0458 C   0  0  0  0  0  0  0  0  0  0  0  0
    3.6371    2.1051    1.3151 N   0  0  0  0  0  0  0  0  0  0  0  0
   -0.5164    1.0269   -0.4818 N   0  0  0  0  0  0  0  0  0  0  0  0
   -6.0564   -4.8653   -1.7083 N   0  0  0  0  0  0  0  0  0  0  0  0
   -7.1138   -5.6634   -2.0136 N   0  0  0  0  0  0  0  0  0  0  0  0
   -7.4549   -3.8296   -3.1422 N   0  0  0  0  0  0  0  0  0  0  0  0
    1.1117   -0.2637    0.4287 O   0  0  0  0  0  0  0  0  0  0  0  0
   -4.2499   -2.8835   -1.6562 O   0  0  0  0  0  0  0  0  0  0  0  0
    4.7739    2.7426   -0.5332 O   0  0  0  0  0  0  0  0  0  0  0  0
    5.3684    4.0162    2.0259 H   0  0  0  0  0  0  0  0  0  0  0  0
    5.9481    3.2244    3.4714 H   0  0  0  0  0  0  0  0  0  0  0  0
    4.2665    3.6813    3.3397 H   0  0  0  0  0  0  0  0  0  0  0  0
    4.4050   -0.0161    2.8563 H   0  0  0  0  0  0  0  0  0  0  0  0
    3.5742    1.2236    3.7649 H   0  0  0  0  0  0  0  0  0  0  0  0
    5.2858    0.9638    4.0037 H   0  0  0  0  0  0  0  0  0  0  0  0
    6.2858    2.2665    0.6917 H   0  0  0  0  0  0  0  0  0  0  0  0
    5.6899    0.6274    0.7946 H   0  0  0  0  0  0  0  0  0  0  0  0
    6.7911    1.2348    2.0081 H   0  0  0  0  0  0  0  0  0  0  0  0
    2.1801    0.8372    2.1004 H   0  0  0  0  0  0  0  0  0  0  0  0
    2.0157    2.5153    2.5600 H   0  0  0  0  0  0  0  0  0  0  0  0
    0.7119    2.8837    0.7390 H   0  0  0  0  0  0  0  0  0  0  0  0
   -0.7173    1.9441   -0.7623 H   0  0  0  0  0  0  0  0  0  0  0  0
   -2.7763    1.3971   -1.7740 H   0  0  0  0  0  0  0  0  0  0  0  0
   -4.4393   -0.2820   -2.3234 H   0  0  0  0  0  0  0  0  0  0  0  0
   -5.1424   -2.3508   -3.4345 H   0  0  0  0  0  0  0  0  0  0  0  0
   -5.9344   -1.7484   -1.9978 H   0  0  0  0  0  0  0  0  0  0  0  0
   -7.2575   -6.5678   -1.6645 H   0  0  0  0  0  0  0  0  0  0  0  0
   -8.8057   -5.4272   -3.2417 H   0  0  0  0  0  0  0  0  0  0  0  0
   -2.1016   -3.2129   -0.4329 H   0  0  0  0  0  0  0  0  0  0  0  0
   -0.4414   -1.5368    0.1156 H   0  0  0  0  0  0  0  0  0  0  0  0
    2.1284    3.4888   -0.9187 H   0  0  0  0  0  0  0  0  0  0  0  0
    2.2985    1.8130   -1.3845 H   0  0  0  0  0  0  0  0  0  0  0  0
  1  2  1  0  0  0  0
  1 27  1  0  0  0  0
  1 28  1  0  0  0  0
  1 29  1  0  0  0  0
  2  3  1  0  0  0  0
  2  4  1  0  0  0  0
  2 19  1  0  0  0  0
  3 30  1  0  0  0  0
  3 31  1  0  0  0  0
  3 32  1  0  0  0  0
  4 33  1  0  0  0  0
  4 34  1  0  0  0  0
  4 35  1  0  0  0  0
  5 19  1  0  0  0  0
  5  6  1  0  0  0  0
  5 36  1  0  0  0  0
  5 37  1  0  0  0  0
  6  7  1  0  0  0  0
  6 17  1  0  0  0  0
  6 38  1  1  0  0  0
  7 20  1  0  0  0  0
  7 24  2  0  0  0  0
  8 20  1  0  0  0  0
  8 16  1  0  0  0  0
  8  9  2  0  0  0  0
  9 10  1  0  0  0  0
  9 40  1  0  0  0  0
 10 41  1  0  0  0  0
 10 11  2  0  0  0  0
 11 25  1  0  0  0  0
 11 15  1  0  0  0  0
 12 25  1  0  0  0  0
 12 13  1  0  0  0  0
 12 42  1  0  0  0  0
 12 43  1  0  0  0  0
 13 23  1  0  0  0  0
 13 21  2  0  0  0  0
 14 22  1  0  0  0  0
 14 45  1  0  0  0  0
 14 23  2  0  0  0  0
 15 46  1  0  0  0  0
 15 16  2  0  0  0  0
 16 47  1  0  0  0  0
 17 18  1  0  0  0  0
 17 48  1  0  0  0  0
 17 49  1  0  0  0  0
 18 19  1  0  0  0  0
 18 26  2  0  0  0  0
 20 39  1  0  0  0  0
 21 22  1  0  0  0  0
 22 44  1  0  0  0  0
M  END
>  <score>
0.44474315643310547

$$$$
Z4168979319
 OpenBabel08202115463D

 51 53  0  0  0  0  0  0  0  0999 V2000
   -6.6416   -4.0043   -4.5181 C   0  0  0  0  0  0  0  0  0  0  0  0
   -5.7128   -3.1744   -3.6806 C   0  0  0  0  0  0  0  0  0  0  0  0
   -4.9948   -3.5094   -2.5725 C   0  0  0  0  0  0  0  0  0  0  0  0
   -3.5371   -2.2223   -0.9785 C   0  0  0  0  0  0  0  0  0  0  0  0
   -4.6518   -1.4167   -3.0978 C   0  0  0  0  0  0  0  0  0  0  0  0
   -4.1210   -0.0055   -3.0545 C   0  0  0  0  0  0  0  0  0  0  0  0
   -2.3959    0.8913   -1.4507 C   0  0  0  0  0  0  0  0  0  0  0  0
   -1.0742    0.5845   -1.2428 C   0  0  0  0  0  0  0  0  0  0  0  0
   -0.1611    1.1030   -0.1944 C   0  0  0  0  0  0  0  0  0  0  0  0
    1.1768    1.3587   -0.4519 C   0  0  0  0  0  0  0  0  0  0  0  0
    1.9703    1.9346    0.5222 C   0  0  0  0  0  0  0  0  0  0  0  0
    1.4269    2.2614    1.7548 C   0  0  0  0  0  0  0  0  0  0  0  0
    3.4949    2.4962    3.1062 C   0  0  0  0  0  0  0  0  0  0  0  0
    5.1971    0.8077    2.7754 C   0  0  0  0  0  0  0  0  0  0  0  0
    6.0565    1.8679    2.1063 C   0  0  0  0  0  0  0  0  0  0  0  0
    5.3751   -0.5418    2.0989 C   0  0  0  0  0  0  0  0  0  0  0  0
    5.4653    0.7558    4.2706 C   0  0  0  0  0  0  0  0  0  0  0  0
    0.0931    2.0066    2.0117 C   0  0  0  0  0  0  0  0  0  0  0  0
   -0.7027    1.4290    1.0347 C   0  0  0  0  0  0  0  0  0  0  0  0
   -4.3198   -2.3731   -2.2056 N   0  0  0  0  0  0  0  0  0  0  0  0
   -2.7922    0.0787   -2.4488 N   0  0  0  0  0  0  0  0  0  0  0  0
    2.2332    2.8525    2.7443 N   0  0  0  0  0  0  0  0  0  0  0  0
   -0.7308   -0.3961   -2.1292 N   0  0  0  0  0  0  0  0  0  0  0  0
   -1.7719   -0.7017   -2.8609 N   0  0  0  0  0  0  0  0  0  0  0  0
   -5.4947   -1.8593   -4.0125 N   0  0  0  0  0  0  0  0  0  0  0  0
    4.2152    3.1472    3.8450 O   0  0  0  0  0  0  0  0  0  0  0  0
    3.8298    1.3186    2.5274 O   0  0  0  0  0  0  0  0  0  0  0  0
   -7.4243   -3.3851   -4.9039 H   0  0  0  0  0  0  0  0  0  0  0  0
   -7.0655   -4.7813   -3.9168 H   0  0  0  0  0  0  0  0  0  0  0  0
   -6.0972   -4.4383   -5.3306 H   0  0  0  0  0  0  0  0  0  0  0  0
   -4.9647   -4.4361   -2.1015 H   0  0  0  0  0  0  0  0  0  0  0  0
   -3.4836   -3.1629   -0.4711 H   0  0  0  0  0  0  0  0  0  0  0  0
   -4.0062   -1.5006   -0.3429 H   0  0  0  0  0  0  0  0  0  0  0  0
   -2.5490   -1.8933   -1.2242 H   0  0  0  0  0  0  0  0  0  0  0  0
   -4.7963    0.5969   -2.4836 H   0  0  0  0  0  0  0  0  0  0  0  0
   -4.0656    0.3702   -4.0549 H   0  0  0  0  0  0  0  0  0  0  0  0
   -2.9677    1.5986   -0.9463 H   0  0  0  0  0  0  0  0  0  0  0  0
    1.5834    1.1171   -1.3781 H   0  0  0  0  0  0  0  0  0  0  0  0
    2.9750    2.1227    0.3304 H   0  0  0  0  0  0  0  0  0  0  0  0
    1.8404    3.6082    3.2290 H   0  0  0  0  0  0  0  0  0  0  0  0
    6.9890    1.4360    1.8083 H   0  0  0  0  0  0  0  0  0  0  0  0
    6.2376    2.6666    2.7949 H   0  0  0  0  0  0  0  0  0  0  0  0
    5.5480    2.2475    1.2448 H   0  0  0  0  0  0  0  0  0  0  0  0
    5.2088   -0.4387    1.0469 H   0  0  0  0  0  0  0  0  0  0  0  0
    4.6721   -1.2392    2.5042 H   0  0  0  0  0  0  0  0  0  0  0  0
    6.3698   -0.8974    2.2693 H   0  0  0  0  0  0  0  0  0  0  0  0
    5.2130   -0.2142    4.6452 H   0  0  0  0  0  0  0  0  0  0  0  0
    4.8702    1.4947    4.7653 H   0  0  0  0  0  0  0  0  0  0  0  0
    6.5014    0.9502    4.4538 H   0  0  0  0  0  0  0  0  0  0  0  0
   -0.3136    2.2481    2.9379 H   0  0  0  0  0  0  0  0  0  0  0  0
   -1.7074    1.2409    1.2265 H   0  0  0  0  0  0  0  0  0  0  0  0
  1  2  1  0  0  0  0
  1 28  1  0  0  0  0
  1 29  1  0  0  0  0
  1 30  1  0  0  0  0
  2 25  1  0  0  0  0
  2  3  2  0  0  0  0
  3 20  1  0  0  0  0
  3 31  1  0  0  0  0
  4 20  1  0  0  0  0
  4 32  1  0  0  0  0
  4 33  1  0  0  0  0
  4 34  1  0  0  0  0
  5 20  1  0  0  0  0
  5  6  1  0  0  0  0
  5 25  2  0  0  0  0
  6 21  1  0  0  0  0
  6 35  1  0  0  0  0
  6 36  1  0  0  0  0
  7 21  1  0  0  0  0
  7 37  1  0  0  0  0
  7  8  2  0  0  0  0
  8  9  1  0  0  0  0
  8 23  1  0  0  0  0
  9 19  1  0  0  0  0
  9 10  2  0  0  0  0
 10 11  1  0  0  0  0
 10 38  1  0  0  0  0
 11 39  1  0  0  0  0
 11 12  2  0  0  0  0
 12 22  1  0  0  0  0
 12 18  1  0  0  0  0
 13 22  1  0  0  0  0
 13 27  1  0  0  0  0
 13 26  2  0  0  0  0
 14 27  1  0  0  0  0
 14 15  1  0  0  0  0
 14 16  1  0  0  0  0
 14 17  1  0  0  0  0
 15 41  1  0  0  0  0
 15 42  1  0  0  0  0
 15 43  1  0  0  0  0
 16 44  1  0  0  0  0
 16 45  1  0  0  0  0
 16 46  1  0  0  0  0
 17 47  1  0  0  0  0
 17 48  1  0  0  0  0
 17 49  1  0  0  0  0
 18 50  1  0  0  0  0
 18 19  2  0  0  0  0
 19 51  1  0  0  0  0
 21 24  1  0  0  0  0
 22 40  1  0  0  0  0
 23 24  2  0  0  0  0
M  END
>  <score>
0.4448285698890686

$$$$
Z4188485258
 OpenBabel08202115463D

 58 60  0  0  0  0  0  0  0  0999 V2000
    6.6946    0.8318    2.1338 C   0  0  0  0  0  0  0  0  0  0  0  0
    5.2762    0.6697    2.6558 C   0  0  0  0  0  0  0  0  0  0  0  0
    5.1792    1.1071    4.1082 C   0  0  0  0  0  0  0  0  0  0  0  0
    4.7417   -0.7420    2.4771 C   0  0  0  0  0  0  0  0  0  0  0  0
    3.1041    1.5699    2.3344 C   0  0  0  0  0  0  0  0  0  0  0  0
    0.9875    2.7558    1.8555 C   0  0  0  0  0  0  0  0  0  0  0  0
    0.1723    1.7350    1.0605 C   0  0  1  0  0  0  0  0  0  0  0  0
   -1.3372    2.0716    0.9475 C   0  0  0  0  0  0  0  0  0  0  0  0
   -1.2437    1.7051   -0.5554 C   0  0  1  0  0  0  0  0  0  0  0  0
   -2.7943    0.0321   -1.5321 C   0  0  0  0  0  0  0  0  0  0  0  0
   -3.1026   -1.3886   -1.8098 C   0  0  0  0  0  0  0  0  0  0  0  0
   -2.1565   -2.3872   -1.6389 C   0  0  0  0  0  0  0  0  0  0  0  0
   -2.4817   -3.7020   -1.9141 C   0  0  0  0  0  0  0  0  0  0  0  0
   -3.7559   -4.0227   -2.3561 C   0  0  0  0  0  0  0  0  0  0  0  0
   -4.6993   -3.0271   -2.5265 C   0  0  0  0  0  0  0  0  0  0  0  0
   -7.1149   -3.6671   -2.3222 C   0  0  0  0  0  0  0  0  0  0  0  0
   -7.4230   -4.1010   -4.3293 C   0  0  0  0  0  0  0  0  0  0  0  0
   -4.3729   -1.7085   -2.2504 C   0  0  0  0  0  0  0  0  0  0  0  0
    0.2901    1.8818   -0.4719 C   0  0  0  0  0  0  0  0  0  0  0  0
    1.0947    0.7742   -1.1556 C   0  0  0  0  0  0  0  0  0  0  0  0
    0.8002    3.2518   -0.9434 C   0  0  0  0  0  0  0  0  0  0  0  0
    4.4059    1.6072    2.0031 O   0  0  0  0  0  0  0  0  0  0  0  0
    2.6102    0.8241    3.1641 O   0  0  0  0  0  0  0  0  0  0  0  0
   -3.6004    0.8786   -1.9317 O   0  0  0  0  0  0  0  0  0  0  0  0
    2.4180    2.4782    1.6162 N   0  0  0  0  0  0  0  0  0  0  0  0
   -1.6776    0.3436   -0.8723 N   0  0  0  0  0  0  0  0  0  0  0  0
   -5.9915   -3.4134   -2.9884 N   0  0  0  0  0  0  0  0  0  0  0  0
   -8.0526   -4.1072   -3.1409 N   0  0  0  0  0  0  0  0  0  0  0  0
   -6.1697   -3.6870   -4.3081 N   0  0  0  0  0  0  0  0  0  0  0  0
    7.3629    0.2431    2.7268 H   0  0  0  0  0  0  0  0  0  0  0  0
    6.9799    1.8615    2.1912 H   0  0  0  0  0  0  0  0  0  0  0  0
    6.7393    0.5050    1.1159 H   0  0  0  0  0  0  0  0  0  0  0  0
    5.7199    2.0205    4.2430 H   0  0  0  0  0  0  0  0  0  0  0  0
    5.5971    0.3493    4.7374 H   0  0  0  0  0  0  0  0  0  0  0  0
    4.1521    1.2595    4.3667 H   0  0  0  0  0  0  0  0  0  0  0  0
    3.8350   -0.8538    3.0341 H   0  0  0  0  0  0  0  0  0  0  0  0
    5.4665   -1.4450    2.8313 H   0  0  0  0  0  0  0  0  0  0  0  0
    4.5475   -0.9210    1.4402 H   0  0  0  0  0  0  0  0  0  0  0  0
    2.8840    2.9725    0.9099 H   0  0  0  0  0  0  0  0  0  0  0  0
    0.7494    3.7460    1.5275 H   0  0  0  0  0  0  0  0  0  0  0  0
    0.7686    2.6627    2.8987 H   0  0  0  0  0  0  0  0  0  0  0  0
    0.3781    0.7507    1.4261 H   0  0  0  0  0  0  0  0  0  0  0  0
   -1.9792    1.4366    1.5215 H   0  0  0  0  0  0  0  0  0  0  0  0
   -1.5808    3.0953    1.1417 H   0  0  0  0  0  0  0  0  0  0  0  0
   -1.7322    2.3970   -1.2092 H   0  0  0  0  0  0  0  0  0  0  0  0
   -1.1046   -0.3948   -0.5776 H   0  0  0  0  0  0  0  0  0  0  0  0
   -1.2018   -2.1470   -1.3035 H   0  0  0  0  0  0  0  0  0  0  0  0
   -1.7707   -4.4506   -1.7897 H   0  0  0  0  0  0  0  0  0  0  0  0
   -4.0020   -5.0125   -2.5594 H   0  0  0  0  0  0  0  0  0  0  0  0
   -7.2376   -3.5367   -1.2977 H   0  0  0  0  0  0  0  0  0  0  0  0
   -7.8924   -4.4026   -5.2069 H   0  0  0  0  0  0  0  0  0  0  0  0
   -5.0840   -0.9599   -2.3748 H   0  0  0  0  0  0  0  0  0  0  0  0
    0.9658    0.8414   -2.2157 H   0  0  0  0  0  0  0  0  0  0  0  0
    0.7497   -0.1795   -0.8144 H   0  0  0  0  0  0  0  0  0  0  0  0
    2.1312    0.8861   -0.9148 H   0  0  0  0  0  0  0  0  0  0  0  0
    0.6276    3.3548   -1.9943 H   0  0  0  0  0  0  0  0  0  0  0  0
    1.8488    3.3291   -0.7451 H   0  0  0  0  0  0  0  0  0  0  0  0
    0.2795    4.0257   -0.4191 H   0  0  0  0  0  0  0  0  0  0  0  0
  1  2  1  0  0  0  0
  1 30  1  0  0  0  0
  1 31  1  0  0  0  0
  1 32  1  0  0  0  0
  2  3  1  0  0  0  0
  2  4  1  0  0  0  0
  2 22  1  0  0  0  0
  3 33  1  0  0  0  0
  3 34  1  0  0  0  0
  3 35  1  0  0  0  0
  4 36  1  0  0  0  0
  4 37  1  0  0  0  0
  4 38  1  0  0  0  0
  5 22  1  0  0  0  0
  5 25  1  0  0  0  0
  5 23  2  0  0  0  0
  6 25  1  0  0  0  0
  6  7  1  0  0  0  0
  6 40  1  0  0  0  0
  6 41  1  0  0  0  0
  7  8  1  0  0  0  0
  7 19  1  0  0  0  0
  7 42  1  1  0  0  0
  8  9  1  0  0  0  0
  8 43  1  0  0  0  0
  8 44  1  0  0  0  0
  9 26  1  0  0  0  0
  9 19  1  0  0  0  0
  9 45  1  6  0  0  0
 10 26  1  0  0  0  0
 10 11  1  0  0  0  0
 10 24  2  0  0  0  0
 11 18  1  0  0  0  0
 11 12  2  0  0  0  0
 12 13  1  0  0  0  0
 12 47  1  0  0  0  0
 13 48  1  0  0  0  0
 13 14  2  0  0  0  0
 14 15  1  0  0  0  0
 14 49  1  0  0  0  0
 15 27  1  0  0  0  0
 15 18  2  0  0  0  0
 16 27  1  0  0  0  0
 16 50  1  0  0  0  0
 16 28  2  0  0  0  0
 17 28  1  0  0  0  0
 17 51  1  0  0  0  0
 17 29  2  0  0  0  0
 18 52  1  0  0  0  0
 19 20  1  0  0  0  0
 19 21  1  0  0  0  0
 20 53  1  0  0  0  0
 20 54  1  0  0  0  0
 20 55  1  0  0  0  0
 21 56  1  0  0  0  0
 21 57  1  0  0  0  0
 21 58  1  0  0  0  0
 25 39  1  0  0  0  0
 26 46  1  0  0  0  0
 27 29  1  0  0  0  0
M  END
>  <score>
0.4448322057723999

$$$$
Z3623396938
 OpenBabel08202115463D

 43 45  0  0  0  0  0  0  0  0999 V2000
   -6.3318   -2.6188   -3.5547 C   0  0  0  0  0  0  0  0  0  0  0  0
   -4.3784   -2.1763   -2.2925 C   0  0  0  0  0  0  0  0  0  0  0  0
   -3.5916   -1.0780   -1.6287 C   0  0  0  0  0  0  0  0  0  0  0  0
   -2.3425   -1.6281   -0.9860 C   0  0  0  0  0  0  0  0  0  0  0  0
   -1.3808   -0.5848   -0.4174 C   0  0  1  0  0  0  0  0  0  0  0  0
   -0.0130   -1.0655   -0.0002 C   0  0  0  0  0  0  0  0  0  0  0  0
    2.1871   -0.1999    0.7835 C   0  0  0  0  0  0  0  0  0  0  0  0
    2.9215    0.9828    1.2255 C   0  0  0  0  0  0  0  0  0  0  0  0
    2.6789    2.3277    1.1029 C   0  0  0  0  0  0  0  0  0  0  0  0
    1.5161    2.9966    0.4295 C   0  0  0  0  0  0  0  0  0  0  0  0
    4.5227    2.1510    2.1839 C   0  0  0  0  0  0  0  0  0  0  0  0
    5.7232    2.3028    2.9037 C   0  0  0  0  0  0  0  0  0  0  0  0
    6.0300    0.0239    2.9742 C   0  0  0  0  0  0  0  0  0  0  0  0
    4.8484   -0.2330    2.3114 C   0  0  0  0  0  0  0  0  0  0  0  0
   -1.4462    0.8014   -0.9778 C   0  0  0  0  0  0  0  0  0  0  0  0
   -1.9651    0.5292    0.3991 C   0  0  0  0  0  0  0  0  0  0  0  0
   -5.4285   -1.6781   -2.9534 O   0  0  0  0  0  0  0  0  0  0  0  0
   -4.1144   -3.3431   -2.2457 O   0  0  0  0  0  0  0  0  0  0  0  0
    2.7276   -1.3105    0.7667 O   0  0  0  0  0  0  0  0  0  0  0  0
    0.9093   -0.0063    0.4034 N   0  0  0  0  0  0  0  0  0  0  0  0
    3.6750    3.0566    1.6993 N   0  0  0  0  0  0  0  0  0  0  0  0
    6.4644    1.2849    3.2802 N   0  0  0  0  0  0  0  0  0  0  0  0
    4.1014    0.8566    1.9082 N   0  0  0  0  0  0  0  0  0  0  0  0
    1.9153    4.1868   -0.1032 F   0  0  0  0  0  0  0  0  0  0  0  0
    0.5585    3.2929    1.3362 F   0  0  0  0  0  0  0  0  0  0  0  0
   -1.3480    1.0037    1.4908 F   0  0  0  0  0  0  0  0  0  0  0  0
   -3.3167    0.5129    0.5106 F   0  0  0  0  0  0  0  0  0  0  0  0
   -6.7149   -3.2767   -2.8029 H   0  0  0  0  0  0  0  0  0  0  0  0
   -5.8115   -3.1889   -4.2957 H   0  0  0  0  0  0  0  0  0  0  0  0
   -7.1421   -2.0916   -4.0134 H   0  0  0  0  0  0  0  0  0  0  0  0
   -4.1983   -0.6164   -0.8778 H   0  0  0  0  0  0  0  0  0  0  0  0
   -3.3168   -0.3501   -2.3632 H   0  0  0  0  0  0  0  0  0  0  0  0
   -1.8146   -2.1953   -1.7240 H   0  0  0  0  0  0  0  0  0  0  0  0
   -2.6402   -2.2728   -0.1856 H   0  0  0  0  0  0  0  0  0  0  0  0
    0.4220   -1.5896   -0.8253 H   0  0  0  0  0  0  0  0  0  0  0  0
   -0.1328   -1.7355    0.8255 H   0  0  0  0  0  0  0  0  0  0  0  0
    0.5730    0.9141    0.3970 H   0  0  0  0  0  0  0  0  0  0  0  0
    1.1368    2.3471   -0.3315 H   0  0  0  0  0  0  0  0  0  0  0  0
    6.0375    3.2635    3.1485 H   0  0  0  0  0  0  0  0  0  0  0  0
    6.6222   -0.7831    3.2564 H   0  0  0  0  0  0  0  0  0  0  0  0
    4.5330   -1.2060    2.1231 H   0  0  0  0  0  0  0  0  0  0  0  0
   -2.1281    1.0255   -1.7713 H   0  0  0  0  0  0  0  0  0  0  0  0
   -0.5480    1.3681   -1.1081 H   0  0  0  0  0  0  0  0  0  0  0  0
  1 17  1  0  0  0  0
  1 28  1  0  0  0  0
  1 29  1  0  0  0  0
  1 30  1  0  0  0  0
  2 17  1  0  0  0  0
  2  3  1  0  0  0  0
  2 18  2  0  0  0  0
  3  4  1  0  0  0  0
  3 31  1  0  0  0  0
  3 32  1  0  0  0  0
  4 33  1  0  0  0  0
  4 34  1  0  0  0  0
  5  4  1  6  0  0  0
  5  6  1  0  0  0  0
  5 15  1  0  0  0  0
  5 16  1  0  0  0  0
  6 20  1  0  0  0  0
  6 35  1  0  0  0  0
  6 36  1  0  0  0  0
  7 20  1  0  0  0  0
  7  8  1  0  0  0  0
  7 19  2  0  0  0  0
  8 23  1  0  0  0  0
  8  9  2  0  0  0  0
  9 10  1  0  0  0  0
  9 21  1  0  0  0  0
 10 24  1  0  0  0  0
 10 25  1  0  0  0  0
 10 38  1  0  0  0  0
 11 12  1  0  0  0  0
 11 23  1  0  0  0  0
 11 21  2  0  0  0  0
 12 39  1  0  0  0  0
 12 22  2  0  0  0  0
 13 22  1  0  0  0  0
 13 40  1  0  0  0  0
 13 14  2  0  0  0  0
 14 23  1  0  0  0  0
 14 41  1  0  0  0  0
 15 16  1  0  0  0  0
 15 42  1  0  0  0  0
 15 43  1  0  0  0  0
 16 26  1  0  0  0  0
 16 27  1  0  0  0  0
 20 37  1  0  0  0  0
M  END
>  <score>
0.4448552131652832

$$$$
PV-003063920536
 OpenBabel08202115463D

 47 50  0  0  0  0  0  0  0  0999 V2000
   -7.2170   -3.9656   -4.0421 C   0  0  0  0  0  0  0  0  0  0  0  0
   -5.9149   -3.5281   -3.4372 C   0  0  0  0  0  0  0  0  0  0  0  0
   -4.1360   -2.3746   -2.8694 C   0  0  0  0  0  0  0  0  0  0  0  0
   -2.9746   -1.4662   -2.5763 C   0  0  0  0  0  0  0  0  0  0  0  0
   -1.7573   -0.2859   -0.9451 C   0  0  0  0  0  0  0  0  0  0  0  0
   -1.3489   -0.2187    0.4990 C   0  0  0  0  0  0  0  0  0  0  0  0
    0.2391    0.8128    2.1845 C   0  0  0  0  0  0  0  0  0  0  0  0
    0.9478    1.2542    0.8666 C   0  0  1  0  0  0  0  0  0  0  0  0
    0.6101    2.7881    0.8865 C   0  0  0  0  0  0  0  0  0  0  0  0
    0.3812    1.5631   -0.0697 C   0  0  1  0  0  0  0  0  0  0  0  0
    1.8321    0.9915   -0.1154 C   0  0  0  0  0  0  0  0  0  0  0  0
    3.6447    1.0008    1.6483 C   0  0  0  0  0  0  0  0  0  0  0  0
    3.9695    1.4309    3.0876 C   0  0  1  0  0  0  0  0  0  0  0  0
    5.0015    0.6058    3.7969 C   0  0  0  0  0  0  0  0  0  0  0  0
    5.3438    1.9793    3.3109 C   0  0  1  0  0  0  0  0  0  0  0  0
    6.2922    2.1723    2.1274 C   0  0  0  0  0  0  0  0  0  0  0  0
   -5.2530   -2.2844   -3.6124 C   0  0  0  0  0  0  0  0  0  0  0  0
   -5.2362   -4.3209   -2.6395 N   0  0  0  0  0  0  0  0  0  0  0  0
   -0.3523    0.6253    0.8377 N   0  0  0  0  0  0  0  0  0  0  0  0
    2.4014    1.2768    1.2237 N   0  0  0  0  0  0  0  0  0  0  0  0
   -4.0913   -3.5864   -2.2617 O   0  0  0  0  0  0  0  0  0  0  0  0
   -2.7932   -1.2272   -1.1853 O   0  0  0  0  0  0  0  0  0  0  0  0
   -1.9083   -0.9140    1.3460 O   0  0  0  0  0  0  0  0  0  0  0  0
    4.4838    0.4401    0.9447 O   0  0  0  0  0  0  0  0  0  0  0  0
    2.9704    1.9661    3.8891 F   0  0  0  0  0  0  0  0  0  0  0  0
   -7.0330   -4.4318   -4.9874 H   0  0  0  0  0  0  0  0  0  0  0  0
   -7.8491   -3.1136   -4.1819 H   0  0  0  0  0  0  0  0  0  0  0  0
   -7.6973   -4.6632   -3.3882 H   0  0  0  0  0  0  0  0  0  0  0  0
   -3.1433   -0.5289   -3.0640 H   0  0  0  0  0  0  0  0  0  0  0  0
   -2.0842   -1.9154   -2.9639 H   0  0  0  0  0  0  0  0  0  0  0  0
   -2.0989    0.6817   -1.2481 H   0  0  0  0  0  0  0  0  0  0  0  0
   -0.9038   -0.5621   -1.5283 H   0  0  0  0  0  0  0  0  0  0  0  0
    0.6982   -0.0927    2.5225 H   0  0  0  0  0  0  0  0  0  0  0  0
   -0.5106    1.1162    2.8851 H   0  0  0  0  0  0  0  0  0  0  0  0
    0.6647    0.7303   -0.0226 H   0  0  0  0  0  0  0  0  0  0  0  0
   -0.3020    3.2428    1.2122 H   0  0  0  0  0  0  0  0  0  0  0  0
    1.2513    3.5347    0.4664 H   0  0  0  0  0  0  0  0  0  0  0  0
   -0.0684    1.7845   -1.0151 H   0  0  0  0  0  0  0  0  0  0  0  0
    2.4036    1.4781   -0.8780 H   0  0  0  0  0  0  0  0  0  0  0  0
    1.8150   -0.0624   -0.2996 H   0  0  0  0  0  0  0  0  0  0  0  0
    5.4232   -0.2523    3.3165 H   0  0  0  0  0  0  0  0  0  0  0  0
    4.9073    0.4175    4.8460 H   0  0  0  0  0  0  0  0  0  0  0  0
    5.4193    2.7279    4.0717 H   0  0  0  0  0  0  0  0  0  0  0  0
    6.1959    1.3463    1.4541 H   0  0  0  0  0  0  0  0  0  0  0  0
    7.2998    2.2264    2.4833 H   0  0  0  0  0  0  0  0  0  0  0  0
    6.0447    3.0793    1.6165 H   0  0  0  0  0  0  0  0  0  0  0  0
   -5.5647   -1.4780   -4.1904 H   0  0  0  0  0  0  0  0  0  0  0  0
  1  2  1  0  0  0  0
  1 26  1  0  0  0  0
  1 27  1  0  0  0  0
  1 28  1  0  0  0  0
  2 17  1  0  0  0  0
  2 18  2  0  0  0  0
  3 21  1  0  0  0  0
  3  4  1  0  0  0  0
  3 17  2  0  0  0  0
  4 22  1  0  0  0  0
  4 29  1  0  0  0  0
  4 30  1  0  0  0  0
  5 22  1  0  0  0  0
  5  6  1  0  0  0  0
  5 31  1  0  0  0  0
  5 32  1  0  0  0  0
  6 19  1  0  0  0  0
  6 23  2  0  0  0  0
  7 19  1  0  0  0  0
  7  8  1  0  0  0  0
  7 33  1  0  0  0  0
  7 34  1  0  0  0  0
  8  9  1  0  0  0  0
  8 20  1  0  0  0  0
  8 35  1  6  0  0  0
  9 10  1  0  0  0  0
  9 36  1  0  0  0  0
  9 37  1  0  0  0  0
 10 19  1  0  0  0  0
 10 11  1  0  0  0  0
 10 38  1  6  0  0  0
 11 20  1  0  0  0  0
 11 39  1  0  0  0  0
 11 40  1  0  0  0  0
 12 20  1  0  0  0  0
 12 13  1  0  0  0  0
 12 24  2  0  0  0  0
 13 25  1  1  0  0  0
 13 14  1  0  0  0  0
 13 15  1  0  0  0  0
 14 15  1  0  0  0  0
 14 41  1  0  0  0  0
 14 42  1  0  0  0  0
 15 16  1  0  0  0  0
 15 43  1  1  0  0  0
 16 44  1  0  0  0  0
 16 45  1  0  0  0  0
 16 46  1  0  0  0  0
 17 47  1  0  0  0  0
 18 21  1  0  0  0  0
M  END
>  <score>
0.44487833976745605

$$$$
PV-004017222376
 OpenBabel08202115463D

 51 54  0  0  0  0  0  0  0  0999 V2000
    2.3682   -0.0161    1.5051 O   0  0  0  0  0  0  0  0  0  0  0  0
   -0.7531    0.0217    0.8073 O   0  0  0  0  0  0  0  0  0  0  0  0
   -4.1465   -2.0527   -0.8782 O   0  0  0  0  0  0  0  0  0  0  0  0
    2.3202    1.1009    1.0154 C   0  0  0  0  0  0  0  0  0  0  0  0
    0.9510    0.3473   -0.8630 C   0  0  0  0  0  0  0  0  0  0  0  0
   -0.5341    0.2950   -0.5865 C   0  0  2  0  0  0  0  0  0  0  0  0
   -1.3221    1.5165   -1.1241 C   0  0  0  0  0  0  0  0  0  0  0  0
   -2.1246    0.5775   -2.0974 C   0  0  2  0  0  0  0  0  0  0  0  0
   -3.6097    0.5253   -1.8208 C   0  0  0  0  0  0  0  0  0  0  0  0
   -4.5394   -1.7379   -1.9984 C   0  0  0  0  0  0  0  0  0  0  0  0
   -5.3605   -2.6938   -2.8417 C   0  0  0  0  0  0  0  0  0  0  0  0
   -6.0995   -3.8373   -2.2130 C   0  0  0  0  0  0  0  0  0  0  0  0
   -4.9805   -4.1037   -3.1701 C   0  0  0  0  0  0  0  0  0  0  0  0
   -1.3365   -0.6440   -1.5596 C   0  0  0  0  0  0  0  0  0  0  0  0
    3.0022    2.2720    1.6721 C   0  0  1  0  0  0  0  0  0  0  0  0
    2.7403    2.2393    3.2088 C   0  0  0  0  0  0  0  0  0  0  0  0
    3.0890    0.8590    3.8344 C   0  0  0  0  0  0  0  0  0  0  0  0
    4.4803    0.5152    3.3685 C   0  0  0  0  0  0  0  0  0  0  0  0
    5.0894    1.1345    2.3016 C   0  0  0  0  0  0  0  0  0  0  0  0
    4.5044    2.1895    1.4372 C   0  0  0  0  0  0  0  0  0  0  0  0
    5.4369   -0.4095    3.8143 C   0  0  0  0  0  0  0  0  0  0  0  0
    1.6722    1.3693   -0.1192 N   0  0  0  0  0  0  0  0  0  0  0  0
   -4.2798   -0.5506   -2.5534 N   0  0  0  0  0  0  0  0  0  0  0  0
    6.3123    0.6227    2.1680 N   0  0  0  0  0  0  0  0  0  0  0  0
    6.5549   -0.3555    3.0953 N   0  0  0  0  0  0  0  0  0  0  0  0
   -5.9900   -1.9390   -3.8135 F   0  0  0  0  0  0  0  0  0  0  0  0
    1.6822    2.2866   -0.4639 H   0  0  0  0  0  0  0  0  0  0  0  0
    1.3702   -0.6049   -0.6131 H   0  0  0  0  0  0  0  0  0  0  0  0
    1.0891    0.5353   -1.9073 H   0  0  0  0  0  0  0  0  0  0  0  0
   -0.6441   -0.9180    0.9706 H   0  0  0  0  0  0  0  0  0  0  0  0
   -0.7140    2.2427   -1.6219 H   0  0  0  0  0  0  0  0  0  0  0  0
   -1.9284    2.0023   -0.3884 H   0  0  0  0  0  0  0  0  0  0  0  0
   -1.9615    0.7810   -3.1351 H   0  0  0  0  0  0  0  0  0  0  0  0
   -4.0452    1.4592   -2.1090 H   0  0  0  0  0  0  0  0  0  0  0  0
   -3.7580    0.3704   -0.7725 H   0  0  0  0  0  0  0  0  0  0  0  0
   -4.5472   -0.3946   -3.4832 H   0  0  0  0  0  0  0  0  0  0  0  0
   -7.1094   -4.0440   -2.4997 H   0  0  0  0  0  0  0  0  0  0  0  0
   -5.9739   -4.0473   -1.1713 H   0  0  0  0  0  0  0  0  0  0  0  0
   -4.0553   -4.5049   -2.8124 H   0  0  0  0  0  0  0  0  0  0  0  0
   -5.1909   -4.5016   -4.1408 H   0  0  0  0  0  0  0  0  0  0  0  0
   -1.9445   -1.3703   -1.0618 H   0  0  0  0  0  0  0  0  0  0  0  0
   -0.7301   -1.1298   -2.2953 H   0  0  0  0  0  0  0  0  0  0  0  0
    2.6219    3.1835    1.2604 H   0  0  0  0  0  0  0  0  0  0  0  0
    1.7057    2.4466    3.3865 H   0  0  0  0  0  0  0  0  0  0  0  0
    3.3408    2.9912    3.6767 H   0  0  0  0  0  0  0  0  0  0  0  0
    3.0618    0.9202    4.9023 H   0  0  0  0  0  0  0  0  0  0  0  0
    2.3941    0.1166    3.5014 H   0  0  0  0  0  0  0  0  0  0  0  0
    4.6911    1.9521    0.4108 H   0  0  0  0  0  0  0  0  0  0  0  0
    4.9533    3.1317    1.6733 H   0  0  0  0  0  0  0  0  0  0  0  0
    6.9585    0.9107    1.4898 H   0  0  0  0  0  0  0  0  0  0  0  0
    5.2894   -1.0600    4.6123 H   0  0  0  0  0  0  0  0  0  0  0  0
  2 30  1  0  0  0  0
  4 22  1  0  0  0  0
  4 15  1  0  0  0  0
  4  1  2  0  0  0  0
  5 22  1  0  0  0  0
  5  6  1  0  0  0  0
  5 28  1  0  0  0  0
  5 29  1  0  0  0  0
  6  2  1  1  0  0  0
  6  7  1  0  0  0  0
  6 14  1  0  0  0  0
  7  8  1  0  0  0  0
  7 31  1  0  0  0  0
  7 32  1  0  0  0  0
  8  9  1  0  0  0  0
  8 14  1  0  0  0  0
  8 33  1  6  0  0  0
  9 23  1  0  0  0  0
  9 34  1  0  0  0  0
  9 35  1  0  0  0  0
 10 23  1  0  0  0  0
 10 11  1  0  0  0  0
 10  3  2  0  0  0  0
 11 26  1  0  0  0  0
 11 12  1  0  0  0  0
 11 13  1  0  0  0  0
 12 13  1  0  0  0  0
 12 37  1  0  0  0  0
 12 38  1  0  0  0  0
 13 39  1  0  0  0  0
 13 40  1  0  0  0  0
 14 41  1  0  0  0  0
 14 42  1  0  0  0  0
 15 16  1  0  0  0  0
 15 20  1  0  0  0  0
 15 43  1  6  0  0  0
 16 17  1  0  0  0  0
 16 44  1  0  0  0  0
 16 45  1  0  0  0  0
 17 18  1  0  0  0  0
 17 46  1  0  0  0  0
 17 47  1  0  0  0  0
 18 21  1  0  0  0  0
 18 19  2  0  0  0  0
 19 20  1  0  0  0  0
 19 24  1  0  0  0  0
 20 48  1  0  0  0  0
 20 49  1  0  0  0  0
 21 51  1  0  0  0  0
 21 25  2  0  0  0  0
 22 27  1  0  0  0  0
 23 36  1  0  0  0  0
 24 25  1  0  0  0  0
 24 50  1  0  0  0  0
M  END
>  <score>
0.44508838653564453

$$$$
Z3898743767
 OpenBabel08202115463D

 52 54  0  0  0  0  0  0  0  0999 V2000
   -6.1945   -2.2610   -0.8454 C   0  0  0  0  0  0  0  0  0  0  0  0
   -5.1832   -2.7016   -1.8912 C   0  0  0  0  0  0  0  0  0  0  0  0
   -5.6632   -2.3606   -3.2835 C   0  0  0  0  0  0  0  0  0  0  0  0
   -4.8316   -4.1765   -1.7843 C   0  0  0  0  0  0  0  0  0  0  0  0
   -4.1390   -0.5777   -1.8150 C   0  0  0  0  0  0  0  0  0  0  0  0
   -2.8852    0.1278   -1.4516 C   0  0  0  0  0  0  0  0  0  0  0  0
   -1.6575   -0.4882   -1.2805 C   0  0  0  0  0  0  0  0  0  0  0  0
   -0.7075    1.5250   -0.7952 C   0  0  0  0  0  0  0  0  0  0  0  0
    0.4866    2.3364   -0.4294 C   0  0  0  0  0  0  0  0  0  0  0  0
    2.9040    2.3920   -0.0138 C   0  0  0  0  0  0  0  0  0  0  0  0
    3.5021    2.4401    1.3947 C   0  0  0  0  0  0  0  0  0  0  0  0
    3.6346    1.0105    1.9205 C   0  0  0  0  0  0  0  0  0  0  0  0
    2.2820    0.2975    1.9115 C   0  0  0  0  0  0  0  0  0  0  0  0
    1.7242    0.3208    0.4859 C   0  0  0  0  0  0  0  0  0  0  0  0
    4.6816    0.2230    1.1263 C   0  0  0  0  0  0  0  0  0  0  0  0
    6.0088    0.5136    1.8346 C   0  0  0  0  0  0  0  0  0  0  0  0
    5.6537    1.4684    2.9796 C   0  0  0  0  0  0  0  0  0  0  0  0
    4.2324    1.0108    3.3319 C   0  0  0  0  0  0  0  0  0  0  0  0
   -1.9352    2.1409   -0.9663 C   0  0  0  0  0  0  0  0  0  0  0  0
   -3.9919   -1.9069   -1.7833 O   0  0  0  0  0  0  0  0  0  0  0  0
   -5.1711   -0.0302   -2.1054 O   0  0  0  0  0  0  0  0  0  0  0  0
    0.4092    3.5085   -0.5581 O   0  0  0  0  0  0  0  0  0  0  0  0
   -0.5587    0.2030   -0.9508 N   0  0  0  0  0  0  0  0  0  0  0  0
    1.6028    1.7119    0.0311 N   0  0  0  0  0  0  0  0  0  0  0  0
   -3.0340    1.4497   -1.2960 N   0  0  0  0  0  0  0  0  0  0  0  0
    6.4920    1.3173    4.0238 F   0  0  0  0  0  0  0  0  0  0  0  0
    5.6699    2.7473    2.5737 F   0  0  0  0  0  0  0  0  0  0  0  0
   -6.3300   -1.2199   -1.0523 H   0  0  0  0  0  0  0  0  0  0  0  0
   -5.8113   -2.4078    0.1427 H   0  0  0  0  0  0  0  0  0  0  0  0
   -7.1150   -2.7954   -0.9546 H   0  0  0  0  0  0  0  0  0  0  0  0
   -6.5091   -1.7084   -3.2199 H   0  0  0  0  0  0  0  0  0  0  0  0
   -5.9428   -3.2584   -3.7940 H   0  0  0  0  0  0  0  0  0  0  0  0
   -4.8773   -1.8735   -3.8220 H   0  0  0  0  0  0  0  0  0  0  0  0
   -3.9526   -4.2916   -1.1850 H   0  0  0  0  0  0  0  0  0  0  0  0
   -4.6505   -4.5715   -2.7621 H   0  0  0  0  0  0  0  0  0  0  0  0
   -5.6440   -4.7046   -1.3305 H   0  0  0  0  0  0  0  0  0  0  0  0
   -1.5863   -1.5175   -1.4117 H   0  0  0  0  0  0  0  0  0  0  0  0
    3.5641    1.8564   -0.6636 H   0  0  0  0  0  0  0  0  0  0  0  0
    2.7731    3.3887   -0.3801 H   0  0  0  0  0  0  0  0  0  0  0  0
    2.8597    3.0026    2.0395 H   0  0  0  0  0  0  0  0  0  0  0  0
    4.4668    2.9018    1.3605 H   0  0  0  0  0  0  0  0  0  0  0  0
    2.4070   -0.7155    2.2326 H   0  0  0  0  0  0  0  0  0  0  0  0
    1.6058    0.8004    2.5709 H   0  0  0  0  0  0  0  0  0  0  0  0
    2.3865   -0.2107   -0.1650 H   0  0  0  0  0  0  0  0  0  0  0  0
    0.7606   -0.1442    0.4723 H   0  0  0  0  0  0  0  0  0  0  0  0
    4.7150    0.5582    0.1107 H   0  0  0  0  0  0  0  0  0  0  0  0
    4.4632   -0.8243    1.1497 H   0  0  0  0  0  0  0  0  0  0  0  0
    6.4347   -0.3898    2.2183 H   0  0  0  0  0  0  0  0  0  0  0  0
    6.6996    0.9764    1.1612 H   0  0  0  0  0  0  0  0  0  0  0  0
    4.2211    0.0365    3.7741 H   0  0  0  0  0  0  0  0  0  0  0  0
    3.7355    1.7027    3.9794 H   0  0  0  0  0  0  0  0  0  0  0  0
   -2.0065    3.1701   -0.8350 H   0  0  0  0  0  0  0  0  0  0  0  0
  1  2  1  0  0  0  0
  1 28  1  0  0  0  0
  1 29  1  0  0  0  0
  1 30  1  0  0  0  0
  2  3  1  0  0  0  0
  2  4  1  0  0  0  0
  2 20  1  0  0  0  0
  3 31  1  0  0  0  0
  3 32  1  0  0  0  0
  3 33  1  0  0  0  0
  4 34  1  0  0  0  0
  4 35  1  0  0  0  0
  4 36  1  0  0  0  0
  5 20  1  0  0  0  0
  5  6  1  0  0  0  0
  5 21  2  0  0  0  0
  6 25  1  0  0  0  0
  6  7  2  0  0  0  0
  7 23  1  0  0  0  0
  7 37  1  0  0  0  0
  8  9  1  0  0  0  0
  8 19  1  0  0  0  0
  8 23  2  0  0  0  0
  9 24  1  0  0  0  0
  9 22  2  0  0  0  0
 10 24  1  0  0  0  0
 10 11  1  0  0  0  0
 10 38  1  0  0  0  0
 10 39  1  0  0  0  0
 11 12  1  0  0  0  0
 11 40  1  0  0  0  0
 11 41  1  0  0  0  0
 12 13  1  0  0  0  0
 12 15  1  0  0  0  0
 12 18  1  0  0  0  0
 13 14  1  0  0  0  0
 13 42  1  0  0  0  0
 13 43  1  0  0  0  0
 14 24  1  0  0  0  0
 14 44  1  0  0  0  0
 14 45  1  0  0  0  0
 15 16  1  0  0  0  0
 15 46  1  0  0  0  0
 15 47  1  0  0  0  0
 16 17  1  0  0  0  0
 16 48  1  0  0  0  0
 16 49  1  0  0  0  0
 17 26  1  0  0  0  0
 17 27  1  0  0  0  0
 17 18  1  0  0  0  0
 18 50  1  0  0  0  0
 18 51  1  0  0  0  0
 19 52  1  0  0  0  0
 19 25  2  0  0  0  0
M  END
>  <score>
0.44509345293045044

$$$$
Z3845753393
 OpenBabel08202115463D

 47 49  0  0  0  0  0  0  0  0999 V2000
   -6.3479   -3.5437   -3.9065 C   0  0  0  0  0  0  0  0  0  0  0  0
   -4.9872   -1.8663   -2.8740 C   0  0  0  0  0  0  0  0  0  0  0  0
   -4.8138   -0.5172   -2.6066 C   0  0  0  0  0  0  0  0  0  0  0  0
   -3.6622   -0.0795   -1.9801 C   0  0  0  0  0  0  0  0  0  0  0  0
   -2.6830   -0.9901   -1.6144 C   0  0  0  0  0  0  0  0  0  0  0  0
   -1.4458   -0.5673   -0.9412 C   0  0  0  0  0  0  0  0  0  0  0  0
   -0.4816   -1.3879   -0.5936 C   0  0  0  0  0  0  0  0  0  0  0  0
    0.6519   -0.6833    0.0642 C   0  0  0  0  0  0  0  0  0  0  0  0
    0.8889    1.7465    0.5354 C   0  0  0  0  0  0  0  0  0  0  0  0
    2.1682    1.3700    1.2413 C   0  0  1  0  0  0  0  0  0  0  0  0
    3.3730    1.7720    0.3787 C   0  0  0  0  0  0  0  0  0  0  0  0
    4.6854    1.4543    1.1059 C   0  0  0  0  0  0  0  0  0  0  0  0
    4.7914    2.0880    2.4943 C   0  0  0  0  0  0  0  0  0  0  0  0
    3.5369    1.7729    3.3624 C   0  0  2  0  0  0  0  0  0  0  0  0
    3.5301    0.3474    3.7065 C   0  0  0  0  0  0  0  0  0  0  0  0
    2.2584    2.1138    2.5809 C   0  0  0  0  0  0  0  0  0  0  0  0
   -1.1370    0.8460   -0.5719 C   0  0  0  0  0  0  0  0  0  0  0  0
   -2.8561   -2.3351   -1.8812 C   0  0  0  0  0  0  0  0  0  0  0  0
   -4.0110   -2.7743   -2.5095 C   0  0  0  0  0  0  0  0  0  0  0  0
   -6.1626   -2.1784   -3.5016 O   0  0  0  0  0  0  0  0  0  0  0  0
    0.5081    2.9157    0.4945 O   0  0  0  0  0  0  0  0  0  0  0  0
    0.1832    0.7119    0.0437 N   0  0  0  0  0  0  0  0  0  0  0  0
    4.6097   -0.0428    4.4148 F   0  0  0  0  0  0  0  0  0  0  0  0
   -5.5416   -3.8395   -4.5447 H   0  0  0  0  0  0  0  0  0  0  0  0
   -7.2734   -3.6362   -4.4353 H   0  0  0  0  0  0  0  0  0  0  0  0
   -6.3666   -4.1727   -3.0411 H   0  0  0  0  0  0  0  0  0  0  0  0
   -5.5502    0.1655   -2.8773 H   0  0  0  0  0  0  0  0  0  0  0  0
   -3.5302    0.9330   -1.7830 H   0  0  0  0  0  0  0  0  0  0  0  0
   -0.5072   -2.4143   -0.7592 H   0  0  0  0  0  0  0  0  0  0  0  0
    0.7997   -1.0310    1.0653 H   0  0  0  0  0  0  0  0  0  0  0  0
    1.5589   -0.7988   -0.4915 H   0  0  0  0  0  0  0  0  0  0  0  0
    2.1838    0.3140    1.4132 H   0  0  0  0  0  0  0  0  0  0  0  0
    3.3418    1.2303   -0.5435 H   0  0  0  0  0  0  0  0  0  0  0  0
    3.3273    2.8220    0.1780 H   0  0  0  0  0  0  0  0  0  0  0  0
    5.4973    1.8132    0.5085 H   0  0  0  0  0  0  0  0  0  0  0  0
    4.7630    0.3925    1.2131 H   0  0  0  0  0  0  0  0  0  0  0  0
    5.6603    1.7037    2.9865 H   0  0  0  0  0  0  0  0  0  0  0  0
    4.8820    3.1487    2.3863 H   0  0  0  0  0  0  0  0  0  0  0  0
    3.5705    2.3565    4.2586 H   0  0  0  0  0  0  0  0  0  0  0  0
    3.4980   -0.2191    2.7994 H   0  0  0  0  0  0  0  0  0  0  0  0
    2.6539    0.1437    4.2860 H   0  0  0  0  0  0  0  0  0  0  0  0
    2.2445    3.1665    2.3896 H   0  0  0  0  0  0  0  0  0  0  0  0
    1.4111    1.8481    3.1778 H   0  0  0  0  0  0  0  0  0  0  0  0
   -1.8533    1.2326    0.1227 H   0  0  0  0  0  0  0  0  0  0  0  0
   -1.1016    1.4757   -1.4362 H   0  0  0  0  0  0  0  0  0  0  0  0
   -2.1198   -3.0178   -1.6104 H   0  0  0  0  0  0  0  0  0  0  0  0
   -4.1430   -3.7869   -2.7065 H   0  0  0  0  0  0  0  0  0  0  0  0
  1 20  1  0  0  0  0
  1 24  1  0  0  0  0
  1 25  1  0  0  0  0
  1 26  1  0  0  0  0
  2 20  1  0  0  0  0
  2 19  1  0  0  0  0
  2  3  2  0  0  0  0
  3  4  1  0  0  0  0
  3 27  1  0  0  0  0
  4 28  1  0  0  0  0
  4  5  2  0  0  0  0
  5  6  1  0  0  0  0
  5 18  1  0  0  0  0
  6 17  1  0  0  0  0
  6  7  2  0  0  0  0
  7  8  1  0  0  0  0
  7 29  1  0  0  0  0
  8 22  1  0  0  0  0
  8 30  1  0  0  0  0
  8 31  1  0  0  0  0
  9 22  1  0  0  0  0
  9 10  1  0  0  0  0
  9 21  2  0  0  0  0
 10 11  1  0  0  0  0
 10 16  1  0  0  0  0
 10 32  1  1  0  0  0
 11 12  1  0  0  0  0
 11 33  1  0  0  0  0
 11 34  1  0  0  0  0
 12 13  1  0  0  0  0
 12 35  1  0  0  0  0
 12 36  1  0  0  0  0
 13 14  1  0  0  0  0
 13 37  1  0  0  0  0
 13 38  1  0  0  0  0
 14 15  1  0  0  0  0
 14 16  1  0  0  0  0
 14 39  1  1  0  0  0
 15 23  1  0  0  0  0
 15 40  1  0  0  0  0
 15 41  1  0  0  0  0
 16 42  1  0  0  0  0
 16 43  1  0  0  0  0
 17 22  1  0  0  0  0
 17 44  1  0  0  0  0
 17 45  1  0  0  0  0
 18 46  1  0  0  0  0
 18 19  2  0  0  0  0
 19 47  1  0  0  0  0
M  END
>  <score>
0.44516730308532715

$$$$
PV-003379621753
 OpenBabel08202115463D

 51 52  0  0  0  0  0  0  0  0999 V2000
   -6.0231   -3.3501   -4.9800 C   0  0  0  0  0  0  0  0  0  0  0  0
   -6.0407   -3.5416   -3.4837 C   0  0  0  0  0  0  0  0  0  0  0  0
   -3.6737   -3.6629   -2.6784 C   0  0  0  0  0  0  0  0  0  0  0  0
   -3.4673   -1.7043   -2.0205 C   0  0  0  0  0  0  0  0  0  0  0  0
   -2.8310   -0.4888   -1.4260 C   0  0  0  0  0  0  0  0  0  0  0  0
   -0.8214    0.4564   -0.3799 C   0  0  1  0  0  0  0  0  0  0  0  0
   -0.5360    0.3090    1.1092 C   0  0  0  0  0  0  0  0  0  0  0  0
    0.4372    1.3728    1.5967 C   0  0  0  0  0  0  0  0  0  0  0  0
    2.8811    1.2021    1.2977 C   0  0  0  0  0  0  0  0  0  0  0  0
    2.9593    1.2141    2.8010 C   0  0  0  0  0  0  0  0  0  0  0  0
    4.3831    1.0813    3.3254 C   0  0  0  0  0  0  0  0  0  0  0  0
    4.3491    1.2042    4.8535 C   0  0  0  0  0  0  0  0  0  0  0  0
    5.3010    2.1532    2.7003 C   0  0  0  0  0  0  0  0  0  0  0  0
    4.8862   -0.2502    2.9690 C   0  0  0  0  0  0  0  0  0  0  0  0
    1.4194    1.5396   -0.6593 C   0  0  2  0  0  0  0  0  0  0  0  0
    0.7973    2.9196   -0.9048 C   0  0  0  0  0  0  0  0  0  0  0  0
    0.4753    0.4650   -1.1677 C   0  0  0  0  0  0  0  0  0  0  0  0
   -4.8181   -3.0197   -2.8951 N   0  0  0  0  0  0  0  0  0  0  0  0
   -2.7859   -2.8594   -2.1223 N   0  0  0  0  0  0  0  0  0  0  0  0
   -1.6505   -0.6670   -0.8264 N   0  0  0  0  0  0  0  0  0  0  0  0
    1.6545    1.3618    0.7763 N   0  0  0  0  0  0  0  0  0  0  0  0
    5.2931   -1.2777    2.7012 N   0  0  0  0  0  0  0  0  0  0  0  0
   -4.7064   -1.7316   -2.4749 N   0  0  0  0  0  0  0  0  0  0  0  0
   -3.3839    0.6125   -1.4962 O   0  0  0  0  0  0  0  0  0  0  0  0
    3.8885    1.0540    0.6072 O   0  0  0  0  0  0  0  0  0  0  0  0
   -5.8106   -2.3262   -5.2066 H   0  0  0  0  0  0  0  0  0  0  0  0
   -6.9780   -3.6139   -5.3843 H   0  0  0  0  0  0  0  0  0  0  0  0
   -5.2682   -3.9745   -5.4104 H   0  0  0  0  0  0  0  0  0  0  0  0
   -6.1216   -4.5853   -3.2622 H   0  0  0  0  0  0  0  0  0  0  0  0
   -6.8806   -3.0227   -3.0712 H   0  0  0  0  0  0  0  0  0  0  0  0
   -3.5021   -4.6611   -2.9147 H   0  0  0  0  0  0  0  0  0  0  0  0
   -1.3275   -1.5806   -0.6800 H   0  0  0  0  0  0  0  0  0  0  0  0
   -1.3433    1.3750   -0.5497 H   0  0  0  0  0  0  0  0  0  0  0  0
   -1.4542    0.4032    1.6505 H   0  0  0  0  0  0  0  0  0  0  0  0
   -0.1133   -0.6575    1.2884 H   0  0  0  0  0  0  0  0  0  0  0  0
    0.6963    1.1742    2.6157 H   0  0  0  0  0  0  0  0  0  0  0  0
   -0.0268    2.3345    1.5271 H   0  0  0  0  0  0  0  0  0  0  0  0
    2.3797    0.3978    3.1787 H   0  0  0  0  0  0  0  0  0  0  0  0
    2.5504    2.1369    3.1559 H   0  0  0  0  0  0  0  0  0  0  0  0
    5.3670    0.9238    5.0275 H   0  0  0  0  0  0  0  0  0  0  0  0
    3.6547    0.5260    5.3037 H   0  0  0  0  0  0  0  0  0  0  0  0
    4.1374    2.2010    5.1797 H   0  0  0  0  0  0  0  0  0  0  0  0
    6.3014    2.0177    3.0549 H   0  0  0  0  0  0  0  0  0  0  0  0
    4.9532    3.1263    2.9780 H   0  0  0  0  0  0  0  0  0  0  0  0
    5.2848    2.0588    1.6346 H   0  0  0  0  0  0  0  0  0  0  0  0
    2.3504    1.4694   -1.1821 H   0  0  0  0  0  0  0  0  0  0  0  0
    0.6914    3.0815   -1.9572 H   0  0  0  0  0  0  0  0  0  0  0  0
    1.4311    3.6752   -0.4899 H   0  0  0  0  0  0  0  0  0  0  0  0
   -0.1648    2.9648   -0.4387 H   0  0  0  0  0  0  0  0  0  0  0  0
    0.2562    0.6521   -2.1982 H   0  0  0  0  0  0  0  0  0  0  0  0
    0.9487   -0.4897   -1.0709 H   0  0  0  0  0  0  0  0  0  0  0  0
  1  2  1  0  0  0  0
  1 26  1  0  0  0  0
  1 27  1  0  0  0  0
  1 28  1  0  0  0  0
  2 18  1  0  0  0  0
  2 29  1  0  0  0  0
  2 30  1  0  0  0  0
  3 18  1  0  0  0  0
  3 31  1  0  0  0  0
  3 19  2  0  0  0  0
  4 19  1  0  0  0  0
  4  5  1  0  0  0  0
  4 23  2  0  0  0  0
  5 20  1  0  0  0  0
  5 24  2  0  0  0  0
  6 20  1  0  0  0  0
  6  7  1  0  0  0  0
  6 17  1  0  0  0  0
  6 33  1  6  0  0  0
  7  8  1  0  0  0  0
  7 34  1  0  0  0  0
  7 35  1  0  0  0  0
  8 21  1  0  0  0  0
  8 36  1  0  0  0  0
  8 37  1  0  0  0  0
  9 21  1  0  0  0  0
  9 10  1  0  0  0  0
  9 25  2  0  0  0  0
 10 11  1  0  0  0  0
 10 38  1  0  0  0  0
 10 39  1  0  0  0  0
 11 12  1  0  0  0  0
 11 13  1  0  0  0  0
 11 14  1  0  0  0  0
 12 40  1  0  0  0  0
 12 41  1  0  0  0  0
 12 42  1  0  0  0  0
 13 43  1  0  0  0  0
 13 44  1  0  0  0  0
 13 45  1  0  0  0  0
 14 22  3  0  0  0  0
 15 21  1  0  0  0  0
 15 16  1  0  0  0  0
 15 17  1  0  0  0  0
 15 46  1  6  0  0  0
 16 47  1  0  0  0  0
 16 48  1  0  0  0  0
 16 49  1  0  0  0  0
 17 50  1  0  0  0  0
 17 51  1  0  0  0  0
 18 23  1  0  0  0  0
 20 32  1  0  0  0  0
M  END
>  <score>
0.44519144296646118

$$$$
PV-002986011590
 OpenBabel08202115463D

 51 53  0  0  0  0  0  0  0  0999 V2000
   -8.4765   -2.3442   -2.8346 C   0  0  0  0  0  0  0  0  0  0  0  0
   -6.2952   -3.2642   -2.8888 C   0  0  0  0  0  0  0  0  0  0  0  0
   -4.8877   -3.0416   -2.4843 C   0  0  0  0  0  0  0  0  0  0  0  0
   -3.9262   -4.0310   -2.6735 C   0  0  0  0  0  0  0  0  0  0  0  0
   -2.6095   -3.8315   -2.3037 C   0  0  0  0  0  0  0  0  0  0  0  0
   -2.2818   -2.6084   -1.7489 C   0  0  0  0  0  0  0  0  0  0  0  0
   -1.3530   -0.9094   -0.8682 C   0  0  0  0  0  0  0  0  0  0  0  0
    0.8195    0.0967   -0.2065 C   0  0  0  0  0  0  0  0  0  0  0  0
    1.3486    1.2852    0.6106 C   0  0  2  0  0  0  0  0  0  0  0  0
    0.8403    2.5949    0.0221 C   0  0  0  0  0  0  0  0  0  0  0  0
    2.8571    1.2799    0.6285 C   0  0  0  0  0  0  0  0  0  0  0  0
    3.5081    2.4911    1.2763 C   0  0  0  0  0  0  0  0  0  0  0  0
    3.2657    2.4580    2.7923 C   0  0  0  0  0  0  0  0  0  0  0  0
    3.9311    1.2766    3.4549 C   0  0  0  0  0  0  0  0  0  0  0  0
    5.4075    1.2494    3.2046 C   0  0  0  0  0  0  0  0  0  0  0  0
    5.6779    1.2987    1.6988 C   0  0  0  0  0  0  0  0  0  0  0  0
    5.0088    2.4646    1.0183 C   0  0  0  0  0  0  0  0  0  0  0  0
   -3.2661   -1.6430   -1.5748 C   0  0  0  0  0  0  0  0  0  0  0  0
   -4.5780   -1.8276   -1.9202 C   0  0  0  0  0  0  0  0  0  0  0  0
   -7.0609   -2.1952   -2.6436 O   0  0  0  0  0  0  0  0  0  0  0  0
   -6.7119   -4.2812   -3.3804 O   0  0  0  0  0  0  0  0  0  0  0  0
    0.8231    1.1843    1.8955 O   0  0  0  0  0  0  0  0  0  0  0  0
   -2.6599   -0.5428   -1.0050 O   0  0  0  0  0  0  0  0  0  0  0  0
   -1.0685   -2.1034   -1.2828 N   0  0  0  0  0  0  0  0  0  0  0  0
   -0.6405    0.0945   -0.3136 N   0  0  0  0  0  0  0  0  0  0  0  0
   -8.8202   -3.2055   -2.3009 H   0  0  0  0  0  0  0  0  0  0  0  0
   -8.6846   -2.4645   -3.8773 H   0  0  0  0  0  0  0  0  0  0  0  0
   -8.9792   -1.4736   -2.4682 H   0  0  0  0  0  0  0  0  0  0  0  0
   -4.2042   -4.9373   -3.1013 H   0  0  0  0  0  0  0  0  0  0  0  0
   -1.8928   -4.5731   -2.4376 H   0  0  0  0  0  0  0  0  0  0  0  0
   -1.1297    0.8674    0.0381 H   0  0  0  0  0  0  0  0  0  0  0  0
    1.2355    0.1452   -1.1911 H   0  0  0  0  0  0  0  0  0  0  0  0
    1.1299   -0.8108    0.2680 H   0  0  0  0  0  0  0  0  0  0  0  0
    1.3123    3.4167    0.5189 H   0  0  0  0  0  0  0  0  0  0  0  0
   -0.2193    2.6584    0.1562 H   0  0  0  0  0  0  0  0  0  0  0  0
    1.0709    2.6297   -1.0221 H   0  0  0  0  0  0  0  0  0  0  0  0
   -0.1352    1.2229    1.8538 H   0  0  0  0  0  0  0  0  0  0  0  0
    3.1985    1.2243   -0.3840 H   0  0  0  0  0  0  0  0  0  0  0  0
    3.1773    0.4092    1.1617 H   0  0  0  0  0  0  0  0  0  0  0  0
    3.0883    3.3851    0.8646 H   0  0  0  0  0  0  0  0  0  0  0  0
    2.2121    2.4036    2.9708 H   0  0  0  0  0  0  0  0  0  0  0  0
    3.6549    3.3573    3.2222 H   0  0  0  0  0  0  0  0  0  0  0  0
    3.4992    0.3766    3.0699 H   0  0  0  0  0  0  0  0  0  0  0  0
    3.7610    1.3316    4.5099 H   0  0  0  0  0  0  0  0  0  0  0  0
    5.8202    0.3494    3.6103 H   0  0  0  0  0  0  0  0  0  0  0  0
    5.8634    2.0953    3.6753 H   0  0  0  0  0  0  0  0  0  0  0  0
    6.7340    1.3744    1.5445 H   0  0  0  0  0  0  0  0  0  0  0  0
    5.3164    0.3934    1.2578 H   0  0  0  0  0  0  0  0  0  0  0  0
    5.1767    2.3919   -0.0359 H   0  0  0  0  0  0  0  0  0  0  0  0
    5.4386    3.3726    1.3868 H   0  0  0  0  0  0  0  0  0  0  0  0
   -5.2973   -1.0927   -1.7648 H   0  0  0  0  0  0  0  0  0  0  0  0
  1 20  1  0  0  0  0
  1 26  1  0  0  0  0
  1 27  1  0  0  0  0
  1 28  1  0  0  0  0
  2 20  1  0  0  0  0
  2  3  1  0  0  0  0
  2 21  2  0  0  0  0
  3 19  1  0  0  0  0
  3  4  2  0  0  0  0
  4  5  1  0  0  0  0
  4 29  1  0  0  0  0
  5 30  1  0  0  0  0
  5  6  2  0  0  0  0
  6 24  1  0  0  0  0
  6 18  1  0  0  0  0
  7 25  1  0  0  0  0
  7 23  1  0  0  0  0
  7 24  2  0  0  0  0
  8 25  1  0  0  0  0
  8  9  1  0  0  0  0
  8 32  1  0  0  0  0
  8 33  1  0  0  0  0
  9 10  1  0  0  0  0
  9 22  1  1  0  0  0
  9 11  1  0  0  0  0
 10 34  1  0  0  0  0
 10 35  1  0  0  0  0
 10 36  1  0  0  0  0
 11 12  1  0  0  0  0
 11 38  1  0  0  0  0
 11 39  1  0  0  0  0
 12 13  1  0  0  0  0
 12 17  1  0  0  0  0
 12 40  1  0  0  0  0
 13 14  1  0  0  0  0
 13 41  1  0  0  0  0
 13 42  1  0  0  0  0
 14 15  1  0  0  0  0
 14 43  1  0  0  0  0
 14 44  1  0  0  0  0
 15 16  1  0  0  0  0
 15 45  1  0  0  0  0
 15 46  1  0  0  0  0
 16 17  1  0  0  0  0
 16 47  1  0  0  0  0
 16 48  1  0  0  0  0
 17 49  1  0  0  0  0
 17 50  1  0  0  0  0
 18 23  1  0  0  0  0
 18 19  2  0  0  0  0
 19 51  1  0  0  0  0
 22 37  1  0  0  0  0
 25 31  1  0  0  0  0
M  END
>  <score>
0.44521164894104004

$$$$
PV-004068308061
 OpenBabel08202115463D

 48 49  0  0  0  0  0  0  0  0999 V2000
   -8.8436   -3.7146   -3.9173 C   0  0  0  0  0  0  0  0  0  0  0  0
   -6.5189   -3.6759   -3.5287 C   0  0  0  0  0  0  0  0  0  0  0  0
   -5.4111   -2.9206   -2.9103 C   0  0  0  0  0  0  0  0  0  0  0  0
   -3.5022   -2.2591   -2.0526 C   0  0  0  0  0  0  0  0  0  0  0  0
   -2.1389   -1.9566   -1.4904 C   0  0  0  0  0  0  0  0  0  0  0  0
   -2.1808   -1.4955   -0.0515 C   0  0  0  0  0  0  0  0  0  0  0  0
   -0.2685   -0.0585    0.4868 C   0  0  0  0  0  0  0  0  0  0  0  0
    1.6703    1.2102    1.2062 C   0  0  0  0  0  0  0  0  0  0  0  0
    1.0593    2.4290    1.0276 C   0  0  0  0  0  0  0  0  0  0  0  0
    1.7940    3.6309    1.1800 C   0  0  0  0  0  0  0  0  0  0  0  0
    3.1050    3.5604    1.5119 C   0  0  0  0  0  0  0  0  0  0  0  0
    5.1397    2.3340    2.0613 C   0  0  0  0  0  0  0  0  0  0  0  0
    5.1902    2.0024    3.5483 C   0  0  0  0  0  0  0  0  0  0  0  0
    5.7712    3.6957    1.8221 C   0  0  0  0  0  0  0  0  0  0  0  0
    5.8704    1.2561    1.2722 C   0  0  0  0  0  0  0  0  0  0  0  0
    3.0541    1.1394    1.5545 C   0  0  0  0  0  0  0  0  0  0  0  0
   -4.0917   -3.3391   -2.5945 C   0  0  0  0  0  0  0  0  0  0  0  0
   -7.6802   -2.9988   -3.4411 O   0  0  0  0  0  0  0  0  0  0  0  0
   -6.4513   -4.7564   -4.0553 O   0  0  0  0  0  0  0  0  0  0  0  0
   -4.3809   -1.2260   -2.0284 O   0  0  0  0  0  0  0  0  0  0  0  0
   -0.8655    0.8898   -0.0397 O   0  0  0  0  0  0  0  0  0  0  0  0
    3.6275    0.0752    1.7194 O   0  0  0  0  0  0  0  0  0  0  0  0
   -5.6057   -1.6654   -2.5760 N   0  0  0  0  0  0  0  0  0  0  0  0
   -0.8450   -1.2951    0.5130 N   0  0  0  0  0  0  0  0  0  0  0  0
    0.9610    0.0780    1.0521 N   0  0  0  0  0  0  0  0  0  0  0  0
    3.7022    2.3516    1.6927 N   0  0  0  0  0  0  0  0  0  0  0  0
   -9.2961   -4.2423   -3.1038 H   0  0  0  0  0  0  0  0  0  0  0  0
   -8.5484   -4.4113   -4.6739 H   0  0  0  0  0  0  0  0  0  0  0  0
   -9.5469   -3.0197   -4.3264 H   0  0  0  0  0  0  0  0  0  0  0  0
   -1.6899   -1.1862   -2.0819 H   0  0  0  0  0  0  0  0  0  0  0  0
   -1.5429   -2.8434   -1.5467 H   0  0  0  0  0  0  0  0  0  0  0  0
   -2.6917   -2.2340    0.5304 H   0  0  0  0  0  0  0  0  0  0  0  0
   -2.7157   -0.5701   -0.0035 H   0  0  0  0  0  0  0  0  0  0  0  0
   -0.3637   -2.0507    0.9105 H   0  0  0  0  0  0  0  0  0  0  0  0
    1.3783   -0.7436    1.3857 H   0  0  0  0  0  0  0  0  0  0  0  0
    0.0503    2.4690    0.7788 H   0  0  0  0  0  0  0  0  0  0  0  0
    1.3337    4.5527    1.0391 H   0  0  0  0  0  0  0  0  0  0  0  0
    3.6574    4.4338    1.6291 H   0  0  0  0  0  0  0  0  0  0  0  0
    4.6982    1.0684    3.7229 H   0  0  0  0  0  0  0  0  0  0  0  0
    4.6976    2.7738    4.1025 H   0  0  0  0  0  0  0  0  0  0  0  0
    6.2104    1.9322    3.8634 H   0  0  0  0  0  0  0  0  0  0  0  0
    5.2556    4.4349    2.3990 H   0  0  0  0  0  0  0  0  0  0  0  0
    5.7028    3.9428    0.7833 H   0  0  0  0  0  0  0  0  0  0  0  0
    6.7998    3.6681    2.1157 H   0  0  0  0  0  0  0  0  0  0  0  0
    5.6182    0.2932    1.6648 H   0  0  0  0  0  0  0  0  0  0  0  0
    6.9263    1.4089    1.3536 H   0  0  0  0  0  0  0  0  0  0  0  0
    5.5801    1.3088    0.2437 H   0  0  0  0  0  0  0  0  0  0  0  0
   -3.6720   -4.2780   -2.7489 H   0  0  0  0  0  0  0  0  0  0  0  0
  1 18  1  0  0  0  0
  1 27  1  0  0  0  0
  1 28  1  0  0  0  0
  1 29  1  0  0  0  0
  2 18  1  0  0  0  0
  2  3  1  0  0  0  0
  2 19  2  0  0  0  0
  3 17  1  0  0  0  0
  3 23  2  0  0  0  0
  4 20  1  0  0  0  0
  4  5  1  0  0  0  0
  4 17  2  0  0  0  0
  5  6  1  0  0  0  0
  5 30  1  0  0  0  0
  5 31  1  0  0  0  0
  6 24  1  0  0  0  0
  6 32  1  0  0  0  0
  6 33  1  0  0  0  0
  7 24  1  0  0  0  0
  7 25  1  0  0  0  0
  7 21  2  0  0  0  0
  8 25  1  0  0  0  0
  8 16  1  0  0  0  0
  8  9  2  0  0  0  0
  9 10  1  0  0  0  0
  9 36  1  0  0  0  0
 10 37  1  0  0  0  0
 10 11  2  0  0  0  0
 11 26  1  0  0  0  0
 11 38  1  0  0  0  0
 12 26  1  0  0  0  0
 12 13  1  0  0  0  0
 12 14  1  0  0  0  0
 12 15  1  0  0  0  0
 13 39  1  0  0  0  0
 13 40  1  0  0  0  0
 13 41  1  0  0  0  0
 14 42  1  0  0  0  0
 14 43  1  0  0  0  0
 14 44  1  0  0  0  0
 15 45  1  0  0  0  0
 15 46  1  0  0  0  0
 15 47  1  0  0  0  0
 16 26  1  0  0  0  0
 16 22  2  0  0  0  0
 17 48  1  0  0  0  0
 23 20  1  0  0  0  0
 24 34  1  0  0  0  0
 25 35  1  0  0  0  0
M  END
>  <score>
0.44524455070495605

$$$$
PV-003664357970
 OpenBabel08202115463D

 58 60  0  0  0  0  0  0  0  0999 V2000
   -1.1028    2.5191   -1.2441 C   0  0  0  0  0  0  0  0  0  0  0  0
    0.7680    2.1519    0.3175 C   0  0  0  0  0  0  0  0  0  0  0  0
    1.4649    1.1820    1.2327 C   0  0  0  0  0  0  0  0  0  0  0  0
    2.5597    1.8299    2.0646 C   0  0  0  0  0  0  0  0  0  0  0  0
    3.3380    0.8666    2.8547 C   0  0  0  0  0  0  0  0  0  0  0  0
    4.4643    1.3608    3.7638 C   0  0  0  0  0  0  0  0  0  0  0  0
    5.2347    0.1816    4.4037 C   0  0  0  0  0  0  0  0  0  0  0  0
    6.2477   -0.2885    3.3471 C   0  0  0  0  0  0  0  0  0  0  0  0
    6.3517    0.8460    2.2898 C   0  0  0  0  0  0  0  0  0  0  0  0
    5.6079    2.0619    2.9367 C   0  0  0  0  0  0  0  0  0  0  0  0
   -0.9235    0.3569   -0.0102 C   0  0  1  0  0  0  0  0  0  0  0  0
   -2.2988    0.4650    0.7359 C   0  0  0  0  0  0  0  0  0  0  0  0
   -3.3225   -0.3507   -0.0753 C   0  0  0  0  0  0  0  0  0  0  0  0
   -2.7624   -0.2561   -1.5342 C   0  0  1  0  0  0  0  0  0  0  0  0
   -4.4186   -1.2709   -3.0345 C   0  0  0  0  0  0  0  0  0  0  0  0
   -4.8370   -2.5073   -3.7572 C   0  0  0  0  0  0  0  0  0  0  0  0
   -3.8762   -2.5962   -4.9086 C   0  0  0  0  0  0  0  0  0  0  0  0
   -6.2577   -2.9543   -3.9325 C   0  0  0  0  0  0  0  0  0  0  0  0
   -5.3175   -3.7581   -3.0905 C   0  0  0  0  0  0  0  0  0  0  0  0
   -1.2503   -0.3751   -1.3078 C   0  0  0  0  0  0  0  0  0  0  0  0
   -0.3796    1.6892   -0.2897 N   0  0  0  0  0  0  0  0  0  0  0  0
   -3.2623   -1.3513   -2.3667 N   0  0  0  0  0  0  0  0  0  0  0  0
    1.1599    3.2828    0.0998 O   0  0  0  0  0  0  0  0  0  0  0  0
   -5.1011   -0.2594   -3.0623 O   0  0  0  0  0  0  0  0  0  0  0  0
   -2.5778   -2.3871   -4.4468 F   0  0  0  0  0  0  0  0  0  0  0  0
   -0.7181    2.3498   -2.2281 H   0  0  0  0  0  0  0  0  0  0  0  0
   -0.9791    3.5500   -0.9855 H   0  0  0  0  0  0  0  0  0  0  0  0
   -2.1424    2.2670   -1.2197 H   0  0  0  0  0  0  0  0  0  0  0  0
    1.9022    0.4071    0.6384 H   0  0  0  0  0  0  0  0  0  0  0  0
    0.7397    0.7578    1.8953 H   0  0  0  0  0  0  0  0  0  0  0  0
    2.1070    2.5309    2.7344 H   0  0  0  0  0  0  0  0  0  0  0  0
    3.2266    2.3454    1.4054 H   0  0  0  0  0  0  0  0  0  0  0  0
    3.7786    0.1815    2.1608 H   0  0  0  0  0  0  0  0  0  0  0  0
    2.6428    0.3451    3.4789 H   0  0  0  0  0  0  0  0  0  0  0  0
    4.0613    2.0155    4.5081 H   0  0  0  0  0  0  0  0  0  0  0  0
    5.7435    0.5063    5.2872 H   0  0  0  0  0  0  0  0  0  0  0  0
    4.5607   -0.6118    4.6508 H   0  0  0  0  0  0  0  0  0  0  0  0
    5.9064   -1.1917    2.8858 H   0  0  0  0  0  0  0  0  0  0  0  0
    7.2017   -0.4577    3.8010 H   0  0  0  0  0  0  0  0  0  0  0  0
    7.3757    1.0894    2.0973 H   0  0  0  0  0  0  0  0  0  0  0  0
    5.8759    0.5553    1.3766 H   0  0  0  0  0  0  0  0  0  0  0  0
    5.2021    2.7096    2.1880 H   0  0  0  0  0  0  0  0  0  0  0  0
    6.2609    2.6192    3.5754 H   0  0  0  0  0  0  0  0  0  0  0  0
   -0.2202   -0.2010    0.5720 H   0  0  0  0  0  0  0  0  0  0  0  0
   -2.2119    0.0647    1.7244 H   0  0  0  0  0  0  0  0  0  0  0  0
   -2.6065    1.4883    0.7907 H   0  0  0  0  0  0  0  0  0  0  0  0
   -3.3576   -1.3666    0.2590 H   0  0  0  0  0  0  0  0  0  0  0  0
   -4.2992    0.0812   -0.0086 H   0  0  0  0  0  0  0  0  0  0  0  0
   -3.0145    0.6802   -1.9866 H   0  0  0  0  0  0  0  0  0  0  0  0
   -2.7315   -2.1720   -2.4373 H   0  0  0  0  0  0  0  0  0  0  0  0
   -4.1206   -1.8501   -5.6355 H   0  0  0  0  0  0  0  0  0  0  0  0
   -3.9439   -3.5661   -5.3555 H   0  0  0  0  0  0  0  0  0  0  0  0
   -6.5866   -3.3330   -4.8777 H   0  0  0  0  0  0  0  0  0  0  0  0
   -7.0521   -2.4050   -3.4718 H   0  0  0  0  0  0  0  0  0  0  0  0
   -5.4406   -3.7840   -2.0280 H   0  0  0  0  0  0  0  0  0  0  0  0
   -4.9751   -4.7120   -3.4338 H   0  0  0  0  0  0  0  0  0  0  0  0
   -0.9730   -1.4053   -1.2261 H   0  0  0  0  0  0  0  0  0  0  0  0
   -0.7223    0.0733   -2.1234 H   0  0  0  0  0  0  0  0  0  0  0  0
  1 21  1  0  0  0  0
  1 26  1  0  0  0  0
  1 27  1  0  0  0  0
  1 28  1  0  0  0  0
  2 21  1  0  0  0  0
  2  3  1  0  0  0  0
  2 23  2  0  0  0  0
  3  4  1  0  0  0  0
  3 29  1  0  0  0  0
  3 30  1  0  0  0  0
  4  5  1  0  0  0  0
  4 31  1  0  0  0  0
  4 32  1  0  0  0  0
  5  6  1  0  0  0  0
  5 33  1  0  0  0  0
  5 34  1  0  0  0  0
  6  7  1  0  0  0  0
  6 10  1  0  0  0  0
  6 35  1  0  0  0  0
  7  8  1  0  0  0  0
  7 36  1  0  0  0  0
  7 37  1  0  0  0  0
  8  9  1  0  0  0  0
  8 38  1  0  0  0  0
  8 39  1  0  0  0  0
  9 10  1  0  0  0  0
  9 40  1  0  0  0  0
  9 41  1  0  0  0  0
 10 42  1  0  0  0  0
 10 43  1  0  0  0  0
 11 21  1  0  0  0  0
 11 12  1  0  0  0  0
 11 20  1  0  0  0  0
 11 44  1  1  0  0  0
 12 13  1  0  0  0  0
 12 45  1  0  0  0  0
 12 46  1  0  0  0  0
 13 14  1  0  0  0  0
 13 47  1  0  0  0  0
 13 48  1  0  0  0  0
 14 22  1  0  0  0  0
 14 20  1  0  0  0  0
 14 49  1  6  0  0  0
 15 22  1  0  0  0  0
 15 16  1  0  0  0  0
 15 24  2  0  0  0  0
 16 17  1  0  0  0  0
 16 18  1  0  0  0  0
 16 19  1  0  0  0  0
 17 25  1  0  0  0  0
 17 51  1  0  0  0  0
 17 52  1  0  0  0  0
 18 19  1  0  0  0  0
 18 53  1  0  0  0  0
 18 54  1  0  0  0  0
 19 55  1  0  0  0  0
 19 56  1  0  0  0  0
 20 57  1  0  0  0  0
 20 58  1  0  0  0  0
 22 50  1  0  0  0  0
M  END
>  <score>
0.44525343179702759

$$$$
Z4493192190
 OpenBabel08202115463D

 45 47  0  0  0  0  0  0  0  0999 V2000
   -7.0097   -2.6304   -4.5962 N   0  0  0  0  0  0  0  0  0  0  0  0
   -1.0933    0.2820   -1.5674 N   0  0  0  0  0  0  0  0  0  0  0  0
   -6.7897   -2.5332   -2.9854 S   0  0  0  0  0  0  0  0  0  0  0  0
   -2.5859   -2.2607   -2.3080 S   0  0  0  0  0  0  0  0  0  0  0  0
   -6.9976   -3.8489   -2.4652 O   0  0  0  0  0  0  0  0  0  0  0  0
   -7.5976   -1.4472   -2.5241 O   0  0  0  0  0  0  0  0  0  0  0  0
    4.8756   -1.8288    2.5463 O   0  0  0  0  0  0  0  0  0  0  0  0
    4.1625   -0.8170    0.6993 O   0  0  0  0  0  0  0  0  0  0  0  0
   -5.1032   -2.1046   -2.7039 C   0  0  0  0  0  0  0  0  0  0  0  0
   -4.0982   -3.0202   -2.5902 C   0  0  0  0  0  0  0  0  0  0  0  0
   -3.2991   -0.7006   -2.3463 C   0  0  0  0  0  0  0  0  0  0  0  0
   -2.4333    0.5154   -2.1422 C   0  0  0  0  0  0  0  0  0  0  0  0
   -1.0947    0.0988   -0.0937 C   0  0  0  0  0  0  0  0  0  0  0  0
    0.2062    0.4603    0.5749 C   0  0  0  0  0  0  0  0  0  0  0  0
    0.6515   -0.2696    1.6660 C   0  0  0  0  0  0  0  0  0  0  0  0
    1.8423    0.0660    2.2821 C   0  0  0  0  0  0  0  0  0  0  0  0
    2.5939    1.1289    1.8059 C   0  0  0  0  0  0  0  0  0  0  0  0
    3.8714    1.4762    2.4703 C   0  0  0  0  0  0  0  0  0  0  0  0
    4.0671    2.7045    3.0732 C   0  0  0  0  0  0  0  0  0  0  0  0
    5.2757    2.9893    3.6894 C   0  0  0  0  0  0  0  0  0  0  0  0
    6.2869    2.0471    3.6963 C   0  0  0  0  0  0  0  0  0  0  0  0
    6.0905    0.8154    3.0916 C   0  0  0  0  0  0  0  0  0  0  0  0
    4.8855    0.5313    2.4772 C   0  0  0  0  0  0  0  0  0  0  0  0
    4.6404   -0.8150    1.9098 C   0  0  0  0  0  0  0  0  0  0  0  0
    2.1496    1.8566    0.7180 C   0  0  0  0  0  0  0  0  0  0  0  0
    0.9553    1.5202    0.0999 C   0  0  0  0  0  0  0  0  0  0  0  0
   -4.6428   -0.7715   -2.5710 C   0  0  0  0  0  0  0  0  0  0  0  0
   -6.7719   -3.4520   -5.0745 H   0  0  0  0  0  0  0  0  0  0  0  0
   -7.3799   -1.8673   -5.0871 H   0  0  0  0  0  0  0  0  0  0  0  0
   -4.2320   -4.0489   -2.6652 H   0  0  0  0  0  0  0  0  0  0  0  0
   -2.9564    1.1803   -1.4871 H   0  0  0  0  0  0  0  0  0  0  0  0
   -2.3010    0.9836   -3.0951 H   0  0  0  0  0  0  0  0  0  0  0  0
   -0.5271    1.0526   -1.7819 H   0  0  0  0  0  0  0  0  0  0  0  0
   -1.3055   -0.9290    0.1163 H   0  0  0  0  0  0  0  0  0  0  0  0
   -1.8666    0.7135    0.3200 H   0  0  0  0  0  0  0  0  0  0  0  0
    0.0897   -1.0696    2.0208 H   0  0  0  0  0  0  0  0  0  0  0  0
    2.1746   -0.4791    3.1032 H   0  0  0  0  0  0  0  0  0  0  0  0
    3.3076    3.4149    3.0645 H   0  0  0  0  0  0  0  0  0  0  0  0
    5.4216    3.9120    4.1466 H   0  0  0  0  0  0  0  0  0  0  0  0
    7.1951    2.2623    4.1552 H   0  0  0  0  0  0  0  0  0  0  0  0
    6.8499    0.1049    3.1003 H   0  0  0  0  0  0  0  0  0  0  0  0
    4.4175   -0.0063    0.2528 H   0  0  0  0  0  0  0  0  0  0  0  0
    2.7114    2.6566    0.3631 H   0  0  0  0  0  0  0  0  0  0  0  0
    0.6231    2.0652   -0.7211 H   0  0  0  0  0  0  0  0  0  0  0  0
   -5.2614    0.0619   -2.6375 H   0  0  0  0  0  0  0  0  0  0  0  0
  1 28  1  0  0  0  0
  1 29  1  0  0  0  0
  2 33  1  0  0  0  0
  3  1  1  0  0  0  0
  3  9  1  0  0  0  0
  3  5  2  0  0  0  0
  3  6  2  0  0  0  0
  8 42  1  0  0  0  0
  9 27  1  0  0  0  0
  9 10  2  0  0  0  0
 10  4  1  0  0  0  0
 10 30  1  0  0  0  0
 11  4  1  0  0  0  0
 11 12  1  0  0  0  0
 11 27  2  0  0  0  0
 12  2  1  0  0  0  0
 12 31  1  0  0  0  0
 12 32  1  0  0  0  0
 13  2  1  0  0  0  0
 13 14  1  0  0  0  0
 13 34  1  0  0  0  0
 13 35  1  0  0  0  0
 14 26  1  0  0  0  0
 14 15  2  0  0  0  0
 15 16  1  0  0  0  0
 15 36  1  0  0  0  0
 16 37  1  0  0  0  0
 16 17  2  0  0  0  0
 17 18  1  0  0  0  0
 17 25  1  0  0  0  0
 18 23  1  0  0  0  0
 18 19  2  0  0  0  0
 19 20  1  0  0  0  0
 19 38  1  0  0  0  0
 20 39  1  0  0  0  0
 20 21  2  0  0  0  0
 21 22  1  0  0  0  0
 21 40  1  0  0  0  0
 22 41  1  0  0  0  0
 22 23  2  0  0  0  0
 23 24  1  0  0  0  0
 24  8  1  0  0  0  0
 24  7  2  0  0  0  0
 25 43  1  0  0  0  0
 25 26  2  0  0  0  0
 26 44  1  0  0  0  0
 27 45  1  0  0  0  0
M  END
>  <score>
0.44534647464752197

$$$$
Z4405962750
 OpenBabel08202115463D

 60 61  0  0  0  0  0  0  0  0999 V2000
   -3.6610   -0.2848   -3.1431 C   0  0  0  0  0  0  0  0  0  0  0  0
   -3.3850   -0.8908   -1.7752 C   0  0  1  0  0  0  0  0  0  0  0  0
   -3.5324   -2.4045   -1.8241 C   0  0  0  0  0  0  0  0  0  0  0  0
   -4.8785   -2.8499   -2.3298 C   0  0  0  0  0  0  0  0  0  0  0  0
   -5.9641   -1.9966   -2.2706 C   0  0  0  0  0  0  0  0  0  0  0  0
   -7.1767   -2.3780   -2.8233 C   0  0  0  0  0  0  0  0  0  0  0  0
   -7.3016   -3.6140   -3.4289 C   0  0  0  0  0  0  0  0  0  0  0  0
   -6.2129   -4.4701   -3.4885 C   0  0  0  0  0  0  0  0  0  0  0  0
   -5.0039   -4.0896   -2.9373 C   0  0  0  0  0  0  0  0  0  0  0  0
   -1.8782    0.4230   -0.2920 C   0  0  0  0  0  0  0  0  0  0  0  0
   -0.4972    0.6466    0.2572 C   0  0  1  0  0  0  0  0  0  0  0  0
   -0.3869   -0.0217    1.6247 C   0  0  0  0  0  0  0  0  0  0  0  0
    1.0425    0.1024    2.1476 C   0  0  0  0  0  0  0  0  0  0  0  0
    2.0456   -0.3911    1.1251 C   0  0  0  0  0  0  0  0  0  0  0  0
    1.8159    0.3004   -0.2203 C   0  0  2  0  0  0  0  0  0  0  0  0
    2.0836    1.7781   -0.0761 C   0  0  0  0  0  0  0  0  0  0  0  0
    3.9459    2.0876    1.5146 C   0  0  0  0  0  0  0  0  0  0  0  0
    5.9674    2.4836    2.7800 C   0  0  0  0  0  0  0  0  0  0  0  0
    7.4300    2.8262    2.5485 C   0  0  0  0  0  0  0  0  0  0  0  0
    5.8231    1.0899    3.3692 C   0  0  0  0  0  0  0  0  0  0  0  0
    5.2510    3.5128    3.6392 C   0  0  0  0  0  0  0  0  0  0  0  0
   -8.5177   -3.9210   -3.9423 O   0  0  0  0  0  0  0  0  0  0  0  0
   -2.8442    1.0539    0.0969 O   0  0  0  0  0  0  0  0  0  0  0  0
    3.3137    1.8715    2.5176 O   0  0  0  0  0  0  0  0  0  0  0  0
    5.2723    2.3416    1.4805 O   0  0  0  0  0  0  0  0  0  0  0  0
    0.4581    0.1009   -0.6436 O   0  0  0  0  0  0  0  0  0  0  0  0
   -2.0648   -0.5348   -1.2771 N   0  0  0  0  0  0  0  0  0  0  0  0
    3.4699    2.1197    0.2474 N   0  0  0  0  0  0  0  0  0  0  0  0
   -2.8864   -0.5712   -3.8235 H   0  0  0  0  0  0  0  0  0  0  0  0
   -3.6874    0.7818   -3.0616 H   0  0  0  0  0  0  0  0  0  0  0  0
   -4.6032   -0.6386   -3.5062 H   0  0  0  0  0  0  0  0  0  0  0  0
   -4.1188   -0.5120   -1.0947 H   0  0  0  0  0  0  0  0  0  0  0  0
   -3.3944   -2.7923   -0.8364 H   0  0  0  0  0  0  0  0  0  0  0  0
   -2.7776   -2.7995   -2.4715 H   0  0  0  0  0  0  0  0  0  0  0  0
   -5.8712   -1.0681   -1.8112 H   0  0  0  0  0  0  0  0  0  0  0  0
   -7.9925   -1.7342   -2.7822 H   0  0  0  0  0  0  0  0  0  0  0  0
   -8.6155   -3.5081   -4.8034 H   0  0  0  0  0  0  0  0  0  0  0  0
   -6.3059   -5.3985   -3.9478 H   0  0  0  0  0  0  0  0  0  0  0  0
   -4.1882   -4.7334   -2.9784 H   0  0  0  0  0  0  0  0  0  0  0  0
   -1.2803   -0.9879   -1.6509 H   0  0  0  0  0  0  0  0  0  0  0  0
   -0.3208    1.6966    0.3635 H   0  0  0  0  0  0  0  0  0  0  0  0
   -0.6439   -1.0566    1.5359 H   0  0  0  0  0  0  0  0  0  0  0  0
   -1.0577    0.4555    2.3082 H   0  0  0  0  0  0  0  0  0  0  0  0
    1.1392   -0.4798    3.0402 H   0  0  0  0  0  0  0  0  0  0  0  0
    1.2455    1.1297    2.3676 H   0  0  0  0  0  0  0  0  0  0  0  0
    1.9334   -1.4481    1.0024 H   0  0  0  0  0  0  0  0  0  0  0  0
    3.0355   -0.1745    1.4688 H   0  0  0  0  0  0  0  0  0  0  0  0
    2.4799   -0.1133   -0.9502 H   0  0  0  0  0  0  0  0  0  0  0  0
    1.4565    2.1557    0.7044 H   0  0  0  0  0  0  0  0  0  0  0  0
    1.8299    2.2544   -1.0000 H   0  0  0  0  0  0  0  0  0  0  0  0
    4.0744    2.3806   -0.4784 H   0  0  0  0  0  0  0  0  0  0  0  0
    8.0461    2.0404    2.9330 H   0  0  0  0  0  0  0  0  0  0  0  0
    7.6655    3.7415    3.0501 H   0  0  0  0  0  0  0  0  0  0  0  0
    7.6083    2.9378    1.4993 H   0  0  0  0  0  0  0  0  0  0  0  0
    6.1753    1.0911    4.3796 H   0  0  0  0  0  0  0  0  0  0  0  0
    6.3992    0.3975    2.7917 H   0  0  0  0  0  0  0  0  0  0  0  0
    4.7932    0.8002    3.3511 H   0  0  0  0  0  0  0  0  0  0  0  0
    5.6185    3.4583    4.6426 H   0  0  0  0  0  0  0  0  0  0  0  0
    4.1999    3.3126    3.6331 H   0  0  0  0  0  0  0  0  0  0  0  0
    5.4305    4.4918    3.2465 H   0  0  0  0  0  0  0  0  0  0  0  0
  1  2  1  0  0  0  0
  1 29  1  0  0  0  0
  1 30  1  0  0  0  0
  1 31  1  0  0  0  0
  2  3  1  0  0  0  0
  2 27  1  0  0  0  0
  2 32  1  1  0  0  0
  3  4  1  0  0  0  0
  3 33  1  0  0  0  0
  3 34  1  0  0  0  0
  4  9  1  0  0  0  0
  4  5  2  0  0  0  0
  5  6  1  0  0  0  0
  5 35  1  0  0  0  0
  6 36  1  0  0  0  0
  6  7  2  0  0  0  0
  7 22  1  0  0  0  0
  7  8  1  0  0  0  0
  8 38  1  0  0  0  0
  8  9  2  0  0  0  0
  9 39  1  0  0  0  0
 10 27  1  0  0  0  0
 10 11  1  0  0  0  0
 10 23  2  0  0  0  0
 11 12  1  0  0  0  0
 11 26  1  0  0  0  0
 11 41  1  1  0  0  0
 12 13  1  0  0  0  0
 12 42  1  0  0  0  0
 12 43  1  0  0  0  0
 13 14  1  0  0  0  0
 13 44  1  0  0  0  0
 13 45  1  0  0  0  0
 14 15  1  0  0  0  0
 14 46  1  0  0  0  0
 14 47  1  0  0  0  0
 15 16  1  0  0  0  0
 15 26  1  0  0  0  0
 15 48  1  6  0  0  0
 16 28  1  0  0  0  0
 16 49  1  0  0  0  0
 16 50  1  0  0  0  0
 17 28  1  0  0  0  0
 17 25  1  0  0  0  0
 17 24  2  0  0  0  0
 18 25  1  0  0  0  0
 18 19  1  0  0  0  0
 18 20  1  0  0  0  0
 18 21  1  0  0  0  0
 19 52  1  0  0  0  0
 19 53  1  0  0  0  0
 19 54  1  0  0  0  0
 20 55  1  0  0  0  0
 20 56  1  0  0  0  0
 20 57  1  0  0  0  0
 21 58  1  0  0  0  0
 21 59  1  0  0  0  0
 21 60  1  0  0  0  0
 22 37  1  0  0  0  0
 27 40  1  0  0  0  0
 28 51  1  0  0  0  0
M  END
>  <score>
0.44544219970703125

$$$$
PV-003977844950
 OpenBabel08202115463D

 51 53  0  0  0  0  0  0  0  0999 V2000
   -8.0315   -4.0091   -3.1695 C   0  0  0  0  0  0  0  0  0  0  0  0
   -6.7692   -3.4559   -2.6422 C   0  0  0  0  0  0  0  0  0  0  0  0
   -5.5968   -1.4033   -2.4080 C   0  0  0  0  0  0  0  0  0  0  0  0
   -4.5143   -2.0168   -1.8064 C   0  0  0  0  0  0  0  0  0  0  0  0
   -3.3548   -1.2964   -1.5654 C   0  0  0  0  0  0  0  0  0  0  0  0
   -3.2833    0.0371   -1.9218 C   0  0  0  0  0  0  0  0  0  0  0  0
   -0.8743    0.4373   -1.2698 C   0  0  0  0  0  0  0  0  0  0  0  0
    0.1242    1.5432   -1.0886 C   0  0  0  0  0  0  0  0  0  0  0  0
    1.8919    1.3601    0.6166 C   0  0  0  0  0  0  0  0  0  0  0  0
    3.8905    1.2213    2.0600 C   0  0  1  0  0  0  0  0  0  0  0  0
    4.3953   -0.0623    2.6988 C   0  0  0  0  0  0  0  0  0  0  0  0
    3.3962   -0.9938    3.3096 C   0  0  0  0  0  0  0  0  0  0  0  0
    4.3318   -0.2159    4.1862 C   0  0  0  0  0  0  0  0  0  0  0  0
    4.9967    2.2428    1.8526 C   0  0  0  0  0  0  0  0  0  0  0  0
    6.2761    1.6970    1.1978 C   0  0  0  0  0  0  0  0  0  0  0  0
    5.8902    2.4971    3.0783 C   0  0  0  0  0  0  0  0  0  0  0  0
   -4.3689    0.6526   -2.5251 C   0  0  0  0  0  0  0  0  0  0  0  0
   -5.5249   -0.0659   -2.7654 C   0  0  0  0  0  0  0  0  0  0  0  0
   -6.7881   -2.0102   -2.7002 O   0  0  0  0  0  0  0  0  0  0  0  0
   -0.6325   -0.7373   -1.0653 O   0  0  0  0  0  0  0  0  0  0  0  0
    1.3019    1.9362    1.5157 O   0  0  0  0  0  0  0  0  0  0  0  0
    4.4529    3.4194    1.2402 O   0  0  0  0  0  0  0  0  0  0  0  0
    7.0393    1.9193    2.4143 O   0  0  0  0  0  0  0  0  0  0  0  0
   -2.1281    0.8211   -1.6948 N   0  0  0  0  0  0  0  0  0  0  0  0
    1.4196    1.0605   -0.6106 N   0  0  0  0  0  0  0  0  0  0  0  0
    3.1508    0.9537    0.8039 N   0  0  0  0  0  0  0  0  0  0  0  0
   -8.8184   -3.8379   -2.4649 H   0  0  0  0  0  0  0  0  0  0  0  0
   -7.9199   -5.0610   -3.3306 H   0  0  0  0  0  0  0  0  0  0  0  0
   -8.2716   -3.5294   -4.0954 H   0  0  0  0  0  0  0  0  0  0  0  0
   -5.9522   -3.8213   -3.2286 H   0  0  0  0  0  0  0  0  0  0  0  0
   -6.6460   -3.7661   -1.6256 H   0  0  0  0  0  0  0  0  0  0  0  0
   -4.5696   -3.0192   -1.5346 H   0  0  0  0  0  0  0  0  0  0  0  0
   -2.5388   -1.7592   -1.1164 H   0  0  0  0  0  0  0  0  0  0  0  0
   -2.2351    1.7802   -1.8650 H   0  0  0  0  0  0  0  0  0  0  0  0
   -0.2643    2.2420   -0.3776 H   0  0  0  0  0  0  0  0  0  0  0  0
    0.2672    2.0328   -2.0292 H   0  0  0  0  0  0  0  0  0  0  0  0
    1.9632    0.4999   -1.2027 H   0  0  0  0  0  0  0  0  0  0  0  0
    3.6007    0.4617    0.0857 H   0  0  0  0  0  0  0  0  0  0  0  0
    3.1961    1.6553    2.7487 H   0  0  0  0  0  0  0  0  0  0  0  0
    5.2313   -0.5221    2.2145 H   0  0  0  0  0  0  0  0  0  0  0  0
    3.5170   -2.0518    3.2043 H   0  0  0  0  0  0  0  0  0  0  0  0
    2.3547   -0.7495    3.2893 H   0  0  0  0  0  0  0  0  0  0  0  0
    3.9579    0.5835    4.7912 H   0  0  0  0  0  0  0  0  0  0  0  0
    5.1202   -0.7188    4.7062 H   0  0  0  0  0  0  0  0  0  0  0  0
    3.5563    3.5585    1.5537 H   0  0  0  0  0  0  0  0  0  0  0  0
    6.6148    2.2766    0.3646 H   0  0  0  0  0  0  0  0  0  0  0  0
    6.2091    0.6677    0.9132 H   0  0  0  0  0  0  0  0  0  0  0  0
    5.5840    1.9612    3.9524 H   0  0  0  0  0  0  0  0  0  0  0  0
    6.0075    3.5334    3.3176 H   0  0  0  0  0  0  0  0  0  0  0  0
   -4.3136    1.6549   -2.7970 H   0  0  0  0  0  0  0  0  0  0  0  0
   -6.3409    0.3969   -3.2144 H   0  0  0  0  0  0  0  0  0  0  0  0
  1  2  1  0  0  0  0
  1 27  1  0  0  0  0
  1 28  1  0  0  0  0
  1 29  1  0  0  0  0
  2 19  1  0  0  0  0
  2 30  1  0  0  0  0
  2 31  1  0  0  0  0
  3 19  1  0  0  0  0
  3 18  1  0  0  0  0
  3  4  2  0  0  0  0
  4  5  1  0  0  0  0
  4 32  1  0  0  0  0
  5 33  1  0  0  0  0
  5  6  2  0  0  0  0
  6 24  1  0  0  0  0
  6 17  1  0  0  0  0
  7 24  1  0  0  0  0
  7  8  1  0  0  0  0
  7 20  2  0  0  0  0
  8 25  1  0  0  0  0
  8 35  1  0  0  0  0
  8 36  1  0  0  0  0
  9 25  1  0  0  0  0
  9 26  1  0  0  0  0
  9 21  2  0  0  0  0
 10 26  1  0  0  0  0
 10 11  1  0  0  0  0
 10 14  1  0  0  0  0
 10 39  1  1  0  0  0
 11 12  1  0  0  0  0
 11 13  1  0  0  0  0
 11 40  1  0  0  0  0
 12 13  1  0  0  0  0
 12 41  1  0  0  0  0
 12 42  1  0  0  0  0
 13 43  1  0  0  0  0
 13 44  1  0  0  0  0
 14 22  1  0  0  0  0
 14 15  1  0  0  0  0
 14 16  1  0  0  0  0
 15 23  1  0  0  0  0
 15 46  1  0  0  0  0
 15 47  1  0  0  0  0
 16 23  1  0  0  0  0
 16 48  1  0  0  0  0
 16 49  1  0  0  0  0
 17 50  1  0  0  0  0
 17 18  2  0  0  0  0
 18 51  1  0  0  0  0
 22 45  1  0  0  0  0
 24 34  1  0  0  0  0
 25 37  1  0  0  0  0
 26 38  1  0  0  0  0
M  END
>  <score>
0.44551563262939453

$$$$
Z4241914325
 OpenBabel08202115463D

 48 50  0  0  0  0  0  0  0  0999 V2000
    5.7047    1.3048    2.0557 C   0  0  0  0  0  0  0  0  0  0  0  0
    4.5404    1.1367    3.0342 C   0  0  0  0  0  0  0  0  0  0  0  0
    4.3995    2.3854    3.9117 C   0  0  0  0  0  0  0  0  0  0  0  0
    4.8975   -0.0274    3.9623 C   0  0  0  0  0  0  0  0  0  0  0  0
    3.2782    0.8789    2.2900 C   0  0  0  0  0  0  0  0  0  0  0  0
    1.6293    1.1440    0.9107 C   0  0  0  0  0  0  0  0  0  0  0  0
    0.7881    1.7887   -0.1346 C   0  0  0  0  0  0  0  0  0  0  0  0
   -1.3021    1.7254   -1.4845 C   0  0  0  0  0  0  0  0  0  0  0  0
   -2.3626    0.6222   -1.5954 C   0  0  0  0  0  0  0  0  0  0  0  0
   -1.5815   -0.6667   -1.3655 C   0  0  2  0  0  0  0  0  0  0  0  0
   -2.5063   -1.7912   -0.8969 C   0  0  0  0  0  0  0  0  0  0  0  0
   -3.7153   -1.9780   -1.7925 C   0  0  0  0  0  0  0  0  0  0  0  0
   -4.9930   -2.1056   -1.2703 C   0  0  0  0  0  0  0  0  0  0  0  0
   -6.0591   -2.3709   -2.1089 C   0  0  0  0  0  0  0  0  0  0  0  0
   -5.8514   -2.5040   -3.4729 C   0  0  0  0  0  0  0  0  0  0  0  0
   -4.5775   -2.3768   -3.9938 C   0  0  0  0  0  0  0  0  0  0  0  0
   -3.5083   -2.1108   -3.1526 C   0  0  0  0  0  0  0  0  0  0  0  0
   -0.5881   -0.2856   -0.2726 C   0  0  0  0  0  0  0  0  0  0  0  0
    2.4869   -0.1535    2.4285 N   0  0  0  0  0  0  0  0  0  0  0  0
    1.4303    0.0132    1.5430 N   0  0  0  0  0  0  0  0  0  0  0  0
   -0.2892    1.1255   -0.5974 N   0  0  0  0  0  0  0  0  0  0  0  0
    2.7889    1.7186    1.3485 N   0  0  0  0  0  0  0  0  0  0  0  0
    1.0748    2.9098   -0.5670 O   0  0  0  0  0  0  0  0  0  0  0  0
   -4.4498   -2.5246   -5.3349 O   0  0  0  0  0  0  0  0  0  0  0  0
    5.7059    0.4925    1.3592 H   0  0  0  0  0  0  0  0  0  0  0  0
    6.6274    1.3111    2.5975 H   0  0  0  0  0  0  0  0  0  0  0  0
    5.5949    2.2281    1.5263 H   0  0  0  0  0  0  0  0  0  0  0  0
    4.3002    3.2500    3.2892 H   0  0  0  0  0  0  0  0  0  0  0  0
    5.2681    2.4878    4.5280 H   0  0  0  0  0  0  0  0  0  0  0  0
    3.5317    2.2901    4.5304 H   0  0  0  0  0  0  0  0  0  0  0  0
    4.0713   -0.0269    4.6421 H   0  0  0  0  0  0  0  0  0  0  0  0
    5.8214    0.1503    4.4721 H   0  0  0  0  0  0  0  0  0  0  0  0
    4.9584   -0.9501    3.4240 H   0  0  0  0  0  0  0  0  0  0  0  0
   -0.8856    1.9557   -2.4428 H   0  0  0  0  0  0  0  0  0  0  0  0
   -1.7146    2.6128   -1.0517 H   0  0  0  0  0  0  0  0  0  0  0  0
   -3.1193    0.7461   -0.8491 H   0  0  0  0  0  0  0  0  0  0  0  0
   -2.8139    0.6251   -2.5656 H   0  0  0  0  0  0  0  0  0  0  0  0
   -1.0729   -0.9705   -2.2565 H   0  0  0  0  0  0  0  0  0  0  0  0
   -2.8467   -1.5626    0.0914 H   0  0  0  0  0  0  0  0  0  0  0  0
   -1.9500   -2.7051   -0.8806 H   0  0  0  0  0  0  0  0  0  0  0  0
   -5.1494   -2.0018   -0.2474 H   0  0  0  0  0  0  0  0  0  0  0  0
   -7.0171   -2.4706   -1.7165 H   0  0  0  0  0  0  0  0  0  0  0  0
   -6.6542   -2.6996   -4.1044 H   0  0  0  0  0  0  0  0  0  0  0  0
   -3.7912   -1.9085   -5.6639 H   0  0  0  0  0  0  0  0  0  0  0  0
   -2.5503   -2.0111   -3.5450 H   0  0  0  0  0  0  0  0  0  0  0  0
    0.2936   -0.8897   -0.3226 H   0  0  0  0  0  0  0  0  0  0  0  0
   -1.0276   -0.3748    0.6988 H   0  0  0  0  0  0  0  0  0  0  0  0
    3.1837    2.5624    1.0444 H   0  0  0  0  0  0  0  0  0  0  0  0
  1  2  1  0  0  0  0
  1 25  1  0  0  0  0
  1 26  1  0  0  0  0
  1 27  1  0  0  0  0
  2  3  1  0  0  0  0
  2  4  1  0  0  0  0
  2  5  1  0  0  0  0
  3 28  1  0  0  0  0
  3 29  1  0  0  0  0
  3 30  1  0  0  0  0
  4 31  1  0  0  0  0
  4 32  1  0  0  0  0
  4 33  1  0  0  0  0
  5 22  1  0  0  0  0
  5 19  2  0  0  0  0
  6  7  1  0  0  0  0
  6 22  1  0  0  0  0
  6 20  2  0  0  0  0
  7 21  1  0  0  0  0
  7 23  2  0  0  0  0
  8 21  1  0  0  0  0
  8  9  1  0  0  0  0
  8 34  1  0  0  0  0
  8 35  1  0  0  0  0
  9 10  1  0  0  0  0
  9 36  1  0  0  0  0
  9 37  1  0  0  0  0
 10 11  1  0  0  0  0
 10 18  1  0  0  0  0
 10 38  1  6  0  0  0
 11 12  1  0  0  0  0
 11 39  1  0  0  0  0
 11 40  1  0  0  0  0
 12 17  1  0  0  0  0
 12 13  2  0  0  0  0
 13 14  1  0  0  0  0
 13 41  1  0  0  0  0
 14 42  1  0  0  0  0
 14 15  2  0  0  0  0
 15 16  1  0  0  0  0
 15 43  1  0  0  0  0
 16 24  1  0  0  0  0
 16 17  2  0  0  0  0
 17 45  1  0  0  0  0
 18 21  1  0  0  0  0
 18 46  1  0  0  0  0
 18 47  1  0  0  0  0
 19 20  1  0  0  0  0
 22 48  1  0  0  0  0
 24 44  1  0  0  0  0
M  END
>  <score>
0.44565218687057495

$$$$
Z3437975548
 OpenBabel08202115463D

 46 47  0  0  0  0  0  0  0  0999 V2000
    0.6256    2.3768   -0.0581 C   0  0  0  0  0  0  0  0  0  0  0  0
   -0.0142    0.0475   -0.6664 C   0  0  0  0  0  0  0  0  0  0  0  0
   -1.9828   -0.1139   -2.1081 C   0  0  0  0  0  0  0  0  0  0  0  0
   -3.2139   -0.2959   -1.2354 C   0  0  0  0  0  0  0  0  0  0  0  0
   -4.1576   -1.2973   -1.8458 C   0  0  0  0  0  0  0  0  0  0  0  0
   -5.1145   -0.8281   -2.7322 C   0  0  0  0  0  0  0  0  0  0  0  0
   -6.0074   -1.7076   -3.3149 C   0  0  0  0  0  0  0  0  0  0  0  0
   -5.9424   -3.0598   -3.0170 C   0  0  0  0  0  0  0  0  0  0  0  0
   -4.9884   -3.5279   -2.1333 C   0  0  0  0  0  0  0  0  0  0  0  0
   -4.0929   -2.6456   -1.5489 C   0  0  0  0  0  0  0  0  0  0  0  0
    1.8796    0.4132    0.8510 C   0  0  2  0  0  0  0  0  0  0  0  0
    1.7055    0.9130    2.3273 C   0  0  0  0  0  0  0  0  0  0  0  0
    2.9105    0.5802    3.2001 C   0  0  0  0  0  0  0  0  0  0  0  0
    4.2361    1.1272    2.5769 C   0  0  1  0  0  0  0  0  0  0  0  0
    5.4106    0.6955    3.4324 C   0  0  0  0  0  0  0  0  0  0  0  0
    4.4088    0.5697    1.1522 C   0  0  0  0  0  0  0  0  0  0  0  0
    3.2035    0.9099    0.2643 C   0  0  0  0  0  0  0  0  0  0  0  0
    0.7655    0.9249    0.0324 N   0  0  0  0  0  0  0  0  0  0  0  0
   -0.9307    0.6369   -1.4395 N   0  0  0  0  0  0  0  0  0  0  0  0
    0.1201   -1.1766   -0.5871 O   0  0  0  0  0  0  0  0  0  0  0  0
   -6.8091   -3.9176   -3.5888 F   0  0  0  0  0  0  0  0  0  0  0  0
   -3.1447   -3.0599   -0.6868 F   0  0  0  0  0  0  0  0  0  0  0  0
    5.4190   -0.6569    3.6078 F   0  0  0  0  0  0  0  0  0  0  0  0
    5.3132    1.2247    4.6867 F   0  0  0  0  0  0  0  0  0  0  0  0
    1.0628    2.7215   -0.9718 H   0  0  0  0  0  0  0  0  0  0  0  0
    1.1238    2.8352    0.7705 H   0  0  0  0  0  0  0  0  0  0  0  0
   -0.4121    2.6368   -0.0392 H   0  0  0  0  0  0  0  0  0  0  0  0
   -0.8931    1.6087   -1.5604 H   0  0  0  0  0  0  0  0  0  0  0  0
   -1.6021   -1.0791   -2.3695 H   0  0  0  0  0  0  0  0  0  0  0  0
   -2.2668    0.4106   -2.9965 H   0  0  0  0  0  0  0  0  0  0  0  0
   -3.7157    0.6439   -1.1363 H   0  0  0  0  0  0  0  0  0  0  0  0
   -2.9111   -0.6427   -0.2695 H   0  0  0  0  0  0  0  0  0  0  0  0
   -5.1606    0.1859   -2.9587 H   0  0  0  0  0  0  0  0  0  0  0  0
   -6.7278   -1.3548   -3.9768 H   0  0  0  0  0  0  0  0  0  0  0  0
   -4.9423   -4.5419   -1.9068 H   0  0  0  0  0  0  0  0  0  0  0  0
    1.8696   -0.6567    0.8390 H   0  0  0  0  0  0  0  0  0  0  0  0
    0.8383    0.4477    2.7473 H   0  0  0  0  0  0  0  0  0  0  0  0
    1.5716    1.9745    2.3170 H   0  0  0  0  0  0  0  0  0  0  0  0
    2.7726    1.0201    4.1657 H   0  0  0  0  0  0  0  0  0  0  0  0
    2.9853   -0.4826    3.2992 H   0  0  0  0  0  0  0  0  0  0  0  0
    4.1963    2.1958    2.5380 H   0  0  0  0  0  0  0  0  0  0  0  0
    6.3129    1.0189    2.9569 H   0  0  0  0  0  0  0  0  0  0  0  0
    5.2906    0.9927    0.7180 H   0  0  0  0  0  0  0  0  0  0  0  0
    4.5119   -0.4940    1.2055 H   0  0  0  0  0  0  0  0  0  0  0  0
    3.1506    1.9726    0.1514 H   0  0  0  0  0  0  0  0  0  0  0  0
    3.3451    0.4555   -0.6940 H   0  0  0  0  0  0  0  0  0  0  0  0
  1 18  1  0  0  0  0
  1 25  1  0  0  0  0
  1 26  1  0  0  0  0
  1 27  1  0  0  0  0
  2 18  1  0  0  0  0
  2 19  1  0  0  0  0
  2 20  2  0  0  0  0
  3 19  1  0  0  0  0
  3  4  1  0  0  0  0
  3 29  1  0  0  0  0
  3 30  1  0  0  0  0
  4  5  1  0  0  0  0
  4 31  1  0  0  0  0
  4 32  1  0  0  0  0
  5 10  1  0  0  0  0
  5  6  2  0  0  0  0
  6  7  1  0  0  0  0
  6 33  1  0  0  0  0
  7 34  1  0  0  0  0
  7  8  2  0  0  0  0
  8 21  1  0  0  0  0
  8  9  1  0  0  0  0
  9 35  1  0  0  0  0
  9 10  2  0  0  0  0
 10 22  1  0  0  0  0
 11 18  1  0  0  0  0
 11 12  1  0  0  0  0
 11 17  1  0  0  0  0
 11 36  1  6  0  0  0
 12 13  1  0  0  0  0
 12 37  1  0  0  0  0
 12 38  1  0  0  0  0
 13 14  1  0  0  0  0
 13 39  1  0  0  0  0
 13 40  1  0  0  0  0
 14 15  1  0  0  0  0
 14 16  1  0  0  0  0
 14 41  1  6  0  0  0
 15 23  1  0  0  0  0
 15 24  1  0  0  0  0
 15 42  1  0  0  0  0
 16 17  1  0  0  0  0
 16 43  1  0  0  0  0
 16 44  1  0  0  0  0
 17 45  1  0  0  0  0
 17 46  1  0  0  0  0
 19 28  1  0  0  0  0
M  END
>  <score>
0.44576478004455566

$$$$
Z4240405294
 OpenBabel08202115463D

 49 50  0  0  0  0  0  0  0  0999 V2000
   -5.4449   -3.3789   -3.0741 C   0  0  0  0  0  0  0  0  0  0  0  0
   -7.1971   -1.6142   -3.0025 C   0  0  0  0  0  0  0  0  0  0  0  0
   -4.9067   -1.1265   -2.1270 C   0  0  0  0  0  0  0  0  0  0  0  0
   -5.3551    0.0421   -1.5408 C   0  0  0  0  0  0  0  0  0  0  0  0
   -4.4513    0.9140   -0.9540 C   0  0  0  0  0  0  0  0  0  0  0  0
   -3.1014    0.6175   -0.9596 C   0  0  0  0  0  0  0  0  0  0  0  0
   -2.0630    1.4896   -0.3633 C   0  0  0  0  0  0  0  0  0  0  0  0
   -0.6290    1.0583   -0.4245 C   0  0  0  0  0  0  0  0  0  0  0  0
    1.5807    1.6153    0.2687 C   0  0  0  0  0  0  0  0  0  0  0  0
    2.3562    2.3574    1.3197 C   0  0  0  0  0  0  0  0  0  0  0  0
    4.3421    1.0391    1.5942 C   0  0  0  0  0  0  0  0  0  0  0  0
    3.7150   -0.2153    0.9583 C   0  0  0  0  0  0  0  0  0  0  0  0
    4.0751    1.0214    3.0977 C   0  0  0  0  0  0  0  0  0  0  0  0
    4.8570   -0.1162    3.7484 C   0  0  0  0  0  0  0  0  0  0  0  0
    6.5243   -0.0937    2.0402 C   0  0  0  0  0  0  0  0  0  0  0  0
    5.8283    1.0509    1.3009 C   0  0  0  0  0  0  0  0  0  0  0  0
   -2.6518   -0.5546   -1.5476 C   0  0  0  0  0  0  0  0  0  0  0  0
   -3.5529   -1.4241   -2.1328 C   0  0  0  0  0  0  0  0  0  0  0  0
   -5.8295   -2.0189   -2.7210 N   0  0  0  0  0  0  0  0  0  0  0  0
   -2.3657    2.5040    0.2399 O   0  0  0  0  0  0  0  0  0  0  0  0
    0.2502    1.8172    0.4202 O   0  0  0  0  0  0  0  0  0  0  0  0
    2.0236    0.9269   -0.6050 O   0  0  0  0  0  0  0  0  0  0  0  0
    3.7412    2.2193    1.0241 O   0  0  0  0  0  0  0  0  0  0  0  0
    6.2420   -0.0071    3.4457 O   0  0  0  0  0  0  0  0  0  0  0  0
   -4.4310   -3.5514   -2.7790 H   0  0  0  0  0  0  0  0  0  0  0  0
   -5.5358   -3.5118   -4.1319 H   0  0  0  0  0  0  0  0  0  0  0  0
   -6.0856   -4.0725   -2.5707 H   0  0  0  0  0  0  0  0  0  0  0  0
   -7.2184   -1.0230   -3.8940 H   0  0  0  0  0  0  0  0  0  0  0  0
   -7.5740   -1.0379   -2.1835 H   0  0  0  0  0  0  0  0  0  0  0  0
   -7.8056   -2.4840   -3.1371 H   0  0  0  0  0  0  0  0  0  0  0  0
   -6.3704    0.2672   -1.5401 H   0  0  0  0  0  0  0  0  0  0  0  0
   -4.7891    1.7914   -0.5093 H   0  0  0  0  0  0  0  0  0  0  0  0
   -0.2917    1.1574   -1.4351 H   0  0  0  0  0  0  0  0  0  0  0  0
   -0.5746    0.0313   -0.1290 H   0  0  0  0  0  0  0  0  0  0  0  0
    2.1479    1.9437    2.2842 H   0  0  0  0  0  0  0  0  0  0  0  0
    2.0841    3.3922    1.3085 H   0  0  0  0  0  0  0  0  0  0  0  0
    2.6579   -0.2094    1.1242 H   0  0  0  0  0  0  0  0  0  0  0  0
    4.1406   -1.0907    1.4024 H   0  0  0  0  0  0  0  0  0  0  0  0
    3.9106   -0.2173   -0.0937 H   0  0  0  0  0  0  0  0  0  0  0  0
    3.0291    0.8778    3.2709 H   0  0  0  0  0  0  0  0  0  0  0  0
    4.3831    1.9532    3.5240 H   0  0  0  0  0  0  0  0  0  0  0  0
    4.4892   -1.0513    3.3807 H   0  0  0  0  0  0  0  0  0  0  0  0
    4.7243   -0.0725    4.8093 H   0  0  0  0  0  0  0  0  0  0  0  0
    7.5809   -0.0262    1.8853 H   0  0  0  0  0  0  0  0  0  0  0  0
    6.1671   -1.0292    1.6632 H   0  0  0  0  0  0  0  0  0  0  0  0
    6.2441    1.9830    1.6223 H   0  0  0  0  0  0  0  0  0  0  0  0
    5.9813    0.9357    0.2482 H   0  0  0  0  0  0  0  0  0  0  0  0
   -1.6365   -0.7798   -1.5483 H   0  0  0  0  0  0  0  0  0  0  0  0
   -3.2152   -2.3015   -2.5774 H   0  0  0  0  0  0  0  0  0  0  0  0
  1 19  1  0  0  0  0
  1 25  1  0  0  0  0
  1 26  1  0  0  0  0
  1 27  1  0  0  0  0
  2 19  1  0  0  0  0
  2 28  1  0  0  0  0
  2 29  1  0  0  0  0
  2 30  1  0  0  0  0
  3 19  1  0  0  0  0
  3 18  1  0  0  0  0
  3  4  2  0  0  0  0
  4  5  1  0  0  0  0
  4 31  1  0  0  0  0
  5 32  1  0  0  0  0
  5  6  2  0  0  0  0
  6  7  1  0  0  0  0
  6 17  1  0  0  0  0
  7  8  1  0  0  0  0
  7 20  2  0  0  0  0
  8 21  1  0  0  0  0
  8 33  1  0  0  0  0
  8 34  1  0  0  0  0
  9 21  1  0  0  0  0
  9 10  1  0  0  0  0
  9 22  2  0  0  0  0
 10 23  1  0  0  0  0
 10 35  1  0  0  0  0
 10 36  1  0  0  0  0
 11 23  1  0  0  0  0
 11 12  1  0  0  0  0
 11 13  1  0  0  0  0
 11 16  1  0  0  0  0
 12 37  1  0  0  0  0
 12 38  1  0  0  0  0
 12 39  1  0  0  0  0
 13 14  1  0  0  0  0
 13 40  1  0  0  0  0
 13 41  1  0  0  0  0
 14 24  1  0  0  0  0
 14 42  1  0  0  0  0
 14 43  1  0  0  0  0
 15 24  1  0  0  0  0
 15 16  1  0  0  0  0
 15 44  1  0  0  0  0
 15 45  1  0  0  0  0
 16 46  1  0  0  0  0
 16 47  1  0  0  0  0
 17 48  1  0  0  0  0
 17 18  2  0  0  0  0
 18 49  1  0  0  0  0
M  END
>  <score>
0.44586372375488281

$$$$
Z4453036736
 OpenBabel08202115463D

 47 48  0  0  0  0  0  0  0  0999 V2000
    0.8689   -0.8939    0.2364 C   0  0  0  0  0  0  0  0  0  0  0  0
    0.7214    0.6300    0.2604 C   0  0  1  0  0  0  0  0  0  0  0  0
   -0.7338    1.0414    0.2008 C   0  0  0  0  0  0  0  0  0  0  0  0
   -2.8449    0.7176   -1.0672 C   0  0  0  0  0  0  0  0  0  0  0  0
   -3.5112   -0.0800   -2.1344 C   0  0  0  0  0  0  0  0  0  0  0  0
   -4.6079   -1.6408   -3.1605 C   0  0  0  0  0  0  0  0  0  0  0  0
   -5.3820   -2.9136   -3.4017 C   0  0  0  0  0  0  0  0  0  0  0  0
   -6.8732   -2.7845   -3.2205 C   0  0  0  0  0  0  0  0  0  0  0  0
    1.4002    1.2081    1.4280 C   0  0  0  0  0  0  0  0  0  0  0  0
    2.8257    0.7740    1.7723 C   0  0  0  0  0  0  0  0  0  0  0  0
    3.1891    1.3087    3.1581 C   0  0  0  0  0  0  0  0  0  0  0  0
    4.6408    1.0274    3.5278 C   0  0  0  0  0  0  0  0  0  0  0  0
    5.5917    1.5599    2.4817 C   0  0  0  0  0  0  0  0  0  0  0  0
    5.2498    1.0311    1.1040 C   0  0  0  0  0  0  0  0  0  0  0  0
    3.8007    1.3205    0.6846 C   0  0  0  0  0  0  0  0  0  0  0  0
   -1.3988    0.3995   -0.9532 N   0  0  0  0  0  0  0  0  0  0  0  0
   -3.5825    0.2603   -3.3982 N   0  0  0  0  0  0  0  0  0  0  0  0
   -4.2881   -0.7401   -4.0536 N   0  0  0  0  0  0  0  0  0  0  0  0
   -4.1408   -1.2775   -1.9437 N   0  0  0  0  0  0  0  0  0  0  0  0
   -7.4389   -1.7160   -3.1386 O   0  0  0  0  0  0  0  0  0  0  0  0
   -7.4751   -3.9459   -3.1631 O   0  0  0  0  0  0  0  0  0  0  0  0
    0.3642   -1.2881   -0.6207 H   0  0  0  0  0  0  0  0  0  0  0  0
    0.4391   -1.3076    1.1247 H   0  0  0  0  0  0  0  0  0  0  0  0
    1.9065   -1.1508    0.1885 H   0  0  0  0  0  0  0  0  0  0  0  0
    1.2018    1.0139   -0.6152 H   0  0  0  0  0  0  0  0  0  0  0  0
   -0.7965    2.1047    0.0983 H   0  0  0  0  0  0  0  0  0  0  0  0
   -1.2234    0.7401    1.1033 H   0  0  0  0  0  0  0  0  0  0  0  0
   -1.3026   -0.5716   -0.8638 H   0  0  0  0  0  0  0  0  0  0  0  0
   -2.9525    1.7574   -1.2955 H   0  0  0  0  0  0  0  0  0  0  0  0
   -3.3193    0.5064   -0.1316 H   0  0  0  0  0  0  0  0  0  0  0  0
   -5.0257   -3.6555   -2.7179 H   0  0  0  0  0  0  0  0  0  0  0  0
   -5.1942   -3.2334   -4.4054 H   0  0  0  0  0  0  0  0  0  0  0  0
   -6.8838   -4.6296   -3.4864 H   0  0  0  0  0  0  0  0  0  0  0  0
   -4.2345   -1.7702   -1.1017 H   0  0  0  0  0  0  0  0  0  0  0  0
    0.7940    0.9839    2.2808 H   0  0  0  0  0  0  0  0  0  0  0  0
    1.4271    2.2671    1.2774 H   0  0  0  0  0  0  0  0  0  0  0  0
    2.8804   -0.2945    1.7851 H   0  0  0  0  0  0  0  0  0  0  0  0
    2.5538    0.8440    3.8829 H   0  0  0  0  0  0  0  0  0  0  0  0
    3.0305    2.3668    3.1703 H   0  0  0  0  0  0  0  0  0  0  0  0
    4.8577    1.4955    4.4652 H   0  0  0  0  0  0  0  0  0  0  0  0
    4.7783   -0.0300    3.6164 H   0  0  0  0  0  0  0  0  0  0  0  0
    5.5325    2.6282    2.4691 H   0  0  0  0  0  0  0  0  0  0  0  0
    6.5879    1.2604    2.7322 H   0  0  0  0  0  0  0  0  0  0  0  0
    5.9065    1.4868    0.3928 H   0  0  0  0  0  0  0  0  0  0  0  0
    5.3991   -0.0284    1.1004 H   0  0  0  0  0  0  0  0  0  0  0  0
    3.6636    2.3766    0.5812 H   0  0  0  0  0  0  0  0  0  0  0  0
    3.5974    0.8407   -0.2499 H   0  0  0  0  0  0  0  0  0  0  0  0
  1  2  1  0  0  0  0
  1 22  1  0  0  0  0
  1 23  1  0  0  0  0
  1 24  1  0  0  0  0
  2  3  1  0  0  0  0
  2  9  1  0  0  0  0
  2 25  1  6  0  0  0
  3 16  1  0  0  0  0
  3 26  1  0  0  0  0
  3 27  1  0  0  0  0
  4 16  1  0  0  0  0
  4  5  1  0  0  0  0
  4 29  1  0  0  0  0
  4 30  1  0  0  0  0
  5 19  1  0  0  0  0
  5 17  2  0  0  0  0
  6  7  1  0  0  0  0
  6 19  1  0  0  0  0
  6 18  2  0  0  0  0
  7  8  1  0  0  0  0
  7 31  1  0  0  0  0
  7 32  1  0  0  0  0
  8 21  1  0  0  0  0
  8 20  2  0  0  0  0
  9 10  1  0  0  0  0
  9 35  1  0  0  0  0
  9 36  1  0  0  0  0
 10 11  1  0  0  0  0
 10 15  1  0  0  0  0
 10 37  1  0  0  0  0
 11 12  1  0  0  0  0
 11 38  1  0  0  0  0
 11 39  1  0  0  0  0
 12 13  1  0  0  0  0
 12 40  1  0  0  0  0
 12 41  1  0  0  0  0
 13 14  1  0  0  0  0
 13 42  1  0  0  0  0
 13 43  1  0  0  0  0
 14 15  1  0  0  0  0
 14 44  1  0  0  0  0
 14 45  1  0  0  0  0
 15 46  1  0  0  0  0
 15 47  1  0  0  0  0
 16 28  1  0  0  0  0
 17 18  1  0  0  0  0
 19 34  1  0  0  0  0
 21 33  1  0  0  0  0
M  END
>  <score>
0.44594168663024902

$$$$
Z3344306892
 OpenBabel08202115463D

 38 40  0  0  0  0  0  0  0  0999 V2000
    6.3928    2.0508    2.3291 C   0  0  0  0  0  0  0  0  0  0  0  0
    5.6024    0.9035    2.9370 C   0  0  0  0  0  0  0  0  0  0  0  0
    4.1775    0.8483    2.4547 C   0  0  0  0  0  0  0  0  0  0  0  0
    2.4441    1.3580    1.4067 C   0  0  0  0  0  0  0  0  0  0  0  0
    1.3680    1.9283    0.5392 C   0  0  0  0  0  0  0  0  0  0  0  0
   -0.1733   -0.1736    0.7335 C   0  0  0  0  0  0  0  0  0  0  0  0
   -1.1332   -0.0508   -0.4568 C   0  0  0  0  0  0  0  0  0  0  0  0
   -2.4716   -0.7954   -0.3550 C   0  0  0  0  0  0  0  0  0  0  0  0
   -2.8545   -0.8908   -1.8446 C   0  0  2  0  0  0  0  0  0  0  0  0
   -3.8929   -1.9518   -2.0852 C   0  0  0  0  0  0  0  0  0  0  0  0
   -6.0874   -2.3092   -2.8683 C   0  0  0  0  0  0  0  0  0  0  0  0
   -1.4937   -1.2770   -2.4538 C   0  0  0  0  0  0  0  0  0  0  0  0
   -1.1269    1.4311   -0.0601 C   0  0  0  0  0  0  0  0  0  0  0  0
    3.3246   -0.0555    2.8578 N   0  0  0  0  0  0  0  0  0  0  0  0
    0.2394    1.2016    0.4260 N   0  0  0  0  0  0  0  0  0  0  0  0
    3.6708    1.7564    1.5462 N   0  0  0  0  0  0  0  0  0  0  0  0
    2.1469    0.2856    2.1633 O   0  0  0  0  0  0  0  0  0  0  0  0
    1.5254    3.0107   -0.0349 O   0  0  0  0  0  0  0  0  0  0  0  0
   -3.8389   -3.0779   -1.6823 O   0  0  0  0  0  0  0  0  0  0  0  0
   -4.9106   -1.4691   -2.8243 O   0  0  0  0  0  0  0  0  0  0  0  0
   -0.6319   -0.3899   -1.7459 O   0  0  0  0  0  0  0  0  0  0  0  0
    6.4884    1.8992    1.2743 H   0  0  0  0  0  0  0  0  0  0  0  0
    7.3654    2.0884    2.7735 H   0  0  0  0  0  0  0  0  0  0  0  0
    5.8808    2.9724    2.5118 H   0  0  0  0  0  0  0  0  0  0  0  0
    5.5977    1.0191    4.0007 H   0  0  0  0  0  0  0  0  0  0  0  0
    6.0849   -0.0163    2.6798 H   0  0  0  0  0  0  0  0  0  0  0  0
   -0.6487   -0.2987    1.6839 H   0  0  0  0  0  0  0  0  0  0  0  0
    0.5943   -0.9101    0.6184 H   0  0  0  0  0  0  0  0  0  0  0  0
   -2.3524   -1.7635    0.0849 H   0  0  0  0  0  0  0  0  0  0  0  0
   -3.1931   -0.2360    0.2030 H   0  0  0  0  0  0  0  0  0  0  0  0
   -3.2063    0.0458   -2.2237 H   0  0  0  0  0  0  0  0  0  0  0  0
   -6.3137   -2.5539   -3.8851 H   0  0  0  0  0  0  0  0  0  0  0  0
   -6.9145   -1.7869   -2.4348 H   0  0  0  0  0  0  0  0  0  0  0  0
   -5.9043   -3.2082   -2.3176 H   0  0  0  0  0  0  0  0  0  0  0  0
   -1.4672   -1.0959   -3.5080 H   0  0  0  0  0  0  0  0  0  0  0  0
   -1.2509   -2.3011   -2.2611 H   0  0  0  0  0  0  0  0  0  0  0  0
   -1.2042    2.1163   -0.8783 H   0  0  0  0  0  0  0  0  0  0  0  0
   -1.8349    1.6972    0.6968 H   0  0  0  0  0  0  0  0  0  0  0  0
  1  2  1  0  0  0  0
  1 22  1  0  0  0  0
  1 23  1  0  0  0  0
  1 24  1  0  0  0  0
  2  3  1  0  0  0  0
  2 25  1  0  0  0  0
  2 26  1  0  0  0  0
  3 16  1  0  0  0  0
  3 14  2  0  0  0  0
  4 17  1  0  0  0  0
  4  5  1  0  0  0  0
  4 16  2  0  0  0  0
  5 15  1  0  0  0  0
  5 18  2  0  0  0  0
  6 15  1  0  0  0  0
  6  7  1  0  0  0  0
  6 27  1  0  0  0  0
  6 28  1  0  0  0  0
  7  8  1  0  0  0  0
  7 21  1  0  0  0  0
  7 13  1  0  0  0  0
  8  9  1  0  0  0  0
  8 29  1  0  0  0  0
  8 30  1  0  0  0  0
  9 10  1  0  0  0  0
  9 12  1  0  0  0  0
  9 31  1  6  0  0  0
 10 20  1  0  0  0  0
 10 19  2  0  0  0  0
 11 20  1  0  0  0  0
 11 32  1  0  0  0  0
 11 33  1  0  0  0  0
 11 34  1  0  0  0  0
 12 21  1  0  0  0  0
 12 35  1  0  0  0  0
 12 36  1  0  0  0  0
 13 15  1  0  0  0  0
 13 37  1  0  0  0  0
 13 38  1  0  0  0  0
 14 17  1  0  0  0  0
M  END
>  <score>
0.44595491886138916

$$$$
Z3666585302
 OpenBabel08202115463D

 50 52  0  0  0  0  0  0  0  0999 V2000
   -7.0478   -3.9485   -3.4223 C   0  0  0  0  0  0  0  0  0  0  0  0
   -5.8218   -3.0986   -3.5834 C   0  0  0  0  0  0  0  0  0  0  0  0
   -5.2456   -2.2427   -2.6908 C   0  0  0  0  0  0  0  0  0  0  0  0
   -4.0934   -1.6055   -3.2134 C   0  0  0  0  0  0  0  0  0  0  0  0
   -3.2754   -0.6076   -2.4496 C   0  0  0  0  0  0  0  0  0  0  0  0
   -2.6740   -1.1502   -1.1678 C   0  0  0  0  0  0  0  0  0  0  0  0
   -1.7679    1.1102   -0.7321 C   0  0  0  0  0  0  0  0  0  0  0  0
   -0.2817    1.4344   -0.7829 C   0  0  0  0  0  0  0  0  0  0  0  0
    0.4205    1.0297    0.5071 C   0  0  0  0  0  0  0  0  0  0  0  0
    1.9137    1.2420    0.3510 C   0  0  0  0  0  0  0  0  0  0  0  0
    3.9045    2.3294    1.3380 C   0  0  0  0  0  0  0  0  0  0  0  0
    4.5478    1.3313    2.2762 C   0  0  1  0  0  0  0  0  0  0  0  0
    6.0293    1.6291    2.4359 C   0  0  0  0  0  0  0  0  0  0  0  0
    6.3224    1.0179    3.7957 C   0  0  0  0  0  0  0  0  0  0  0  0
    5.0433    1.2835    4.5655 C   0  0  0  0  0  0  0  0  0  0  0  0
    0.1529   -0.4311    0.8179 C   0  0  0  0  0  0  0  0  0  0  0  0
   -1.3370   -0.7182    0.8658 C   0  0  0  0  0  0  0  0  0  0  0  0
   -3.8092   -1.9990   -4.4884 C   0  0  0  0  0  0  0  0  0  0  0  0
   -4.0563    0.4809   -2.1358 F   0  0  0  0  0  0  0  0  0  0  0  0
   -2.2561   -0.1244   -3.2273 F   0  0  0  0  0  0  0  0  0  0  0  0
   -2.8269   -2.3285   -0.8484 O   0  0  0  0  0  0  0  0  0  0  0  0
    2.5492    0.6763   -0.5365 O   0  0  0  0  0  0  0  0  0  0  0  0
    3.9958    1.4516    3.5921 O   0  0  0  0  0  0  0  0  0  0  0  0
   -1.9679   -0.3033   -0.3902 N   0  0  0  0  0  0  0  0  0  0  0  0
    2.4761    2.0719    1.2308 N   0  0  0  0  0  0  0  0  0  0  0  0
   -4.9539   -3.1408   -5.0628 S   0  0  0  0  0  0  0  0  0  0  0  0
   -6.9797   -4.7995   -4.0673 H   0  0  0  0  0  0  0  0  0  0  0  0
   -7.9146   -3.3758   -3.6782 H   0  0  0  0  0  0  0  0  0  0  0  0
   -7.1234   -4.2763   -2.4065 H   0  0  0  0  0  0  0  0  0  0  0  0
   -5.6121   -2.0763   -1.7319 H   0  0  0  0  0  0  0  0  0  0  0  0
   -2.2053    1.3075   -1.6885 H   0  0  0  0  0  0  0  0  0  0  0  0
   -2.2379    1.7226    0.0087 H   0  0  0  0  0  0  0  0  0  0  0  0
    0.1619    0.9063   -1.6009 H   0  0  0  0  0  0  0  0  0  0  0  0
   -0.1601    2.4873   -0.9296 H   0  0  0  0  0  0  0  0  0  0  0  0
    0.0560    1.6339    1.3115 H   0  0  0  0  0  0  0  0  0  0  0  0
    1.8828    2.5439    1.8518 H   0  0  0  0  0  0  0  0  0  0  0  0
    4.0575    3.3187    1.7160 H   0  0  0  0  0  0  0  0  0  0  0  0
    4.3523    2.2436    0.3701 H   0  0  0  0  0  0  0  0  0  0  0  0
    4.4031    0.3409    1.8980 H   0  0  0  0  0  0  0  0  0  0  0  0
    6.2177    2.6823    2.4331 H   0  0  0  0  0  0  0  0  0  0  0  0
    6.6061    1.1610    1.6657 H   0  0  0  0  0  0  0  0  0  0  0  0
    7.1586    1.4965    4.2611 H   0  0  0  0  0  0  0  0  0  0  0  0
    6.5118   -0.0319    3.7136 H   0  0  0  0  0  0  0  0  0  0  0  0
    5.1453    2.1719    5.1530 H   0  0  0  0  0  0  0  0  0  0  0  0
    4.8208    0.4555    5.2058 H   0  0  0  0  0  0  0  0  0  0  0  0
    0.5850   -0.6707    1.7670 H   0  0  0  0  0  0  0  0  0  0  0  0
    0.6008   -1.0372    0.0583 H   0  0  0  0  0  0  0  0  0  0  0  0
   -1.7760   -0.1777    1.6782 H   0  0  0  0  0  0  0  0  0  0  0  0
   -1.4912   -1.7672    1.0101 H   0  0  0  0  0  0  0  0  0  0  0  0
   -3.0007   -1.6509   -5.0422 H   0  0  0  0  0  0  0  0  0  0  0  0
  1  2  1  0  0  0  0
  1 27  1  0  0  0  0
  1 28  1  0  0  0  0
  1 29  1  0  0  0  0
  2 26  1  0  0  0  0
  2  3  2  0  0  0  0
  3  4  1  0  0  0  0
  3 30  1  0  0  0  0
  4  5  1  0  0  0  0
  4 18  2  0  0  0  0
  5 19  1  0  0  0  0
  5 20  1  0  0  0  0
  5  6  1  0  0  0  0
  6 24  1  0  0  0  0
  6 21  2  0  0  0  0
  7 24  1  0  0  0  0
  7  8  1  0  0  0  0
  7 31  1  0  0  0  0
  7 32  1  0  0  0  0
  8  9  1  0  0  0  0
  8 33  1  0  0  0  0
  8 34  1  0  0  0  0
  9 10  1  0  0  0  0
  9 16  1  0  0  0  0
  9 35  1  0  0  0  0
 10 25  1  0  0  0  0
 10 22  2  0  0  0  0
 11 25  1  0  0  0  0
 11 12  1  0  0  0  0
 11 37  1  0  0  0  0
 11 38  1  0  0  0  0
 12 13  1  0  0  0  0
 12 23  1  0  0  0  0
 12 39  1  6  0  0  0
 13 14  1  0  0  0  0
 13 40  1  0  0  0  0
 13 41  1  0  0  0  0
 14 15  1  0  0  0  0
 14 42  1  0  0  0  0
 14 43  1  0  0  0  0
 15 23  1  0  0  0  0
 15 44  1  0  0  0  0
 15 45  1  0  0  0  0
 16 17  1  0  0  0  0
 16 46  1  0  0  0  0
 16 47  1  0  0  0  0
 17 24  1  0  0  0  0
 17 48  1  0  0  0  0
 17 49  1  0  0  0  0
 18 26  1  0  0  0  0
 18 50  1  0  0  0  0
 25 36  1  0  0  0  0
M  END
>  <score>
0.44597703218460083

$$$$
Z3588201935
 OpenBabel08202115463D

 56 57  0  0  0  0  0  0  0  0999 V2000
   -7.8195   -2.6390   -3.4405 C   0  0  0  0  0  0  0  0  0  0  0  0
   -6.7273   -4.6923   -4.0341 C   0  0  0  0  0  0  0  0  0  0  0  0
   -5.6481   -3.1522   -2.5213 C   0  0  0  0  0  0  0  0  0  0  0  0
   -4.7142   -1.9988   -2.6872 C   0  0  0  0  0  0  0  0  0  0  0  0
   -2.7493   -1.1320   -1.6293 C   0  0  0  0  0  0  0  0  0  0  0  0
   -2.4479   -0.2977   -2.6891 C   0  0  0  0  0  0  0  0  0  0  0  0
   -1.3882    0.5906   -2.5921 C   0  0  0  0  0  0  0  0  0  0  0  0
   -0.6297    0.6383   -1.4377 C   0  0  0  0  0  0  0  0  0  0  0  0
   -0.9321   -0.1986   -0.3748 C   0  0  0  0  0  0  0  0  0  0  0  0
    0.7572    0.9485    1.0292 C   0  0  0  0  0  0  0  0  0  0  0  0
    2.6318    1.5517    2.4420 C   0  0  1  0  0  0  0  0  0  0  0  0
    3.0044    1.3046    3.9306 C   0  0  0  0  0  0  0  0  0  0  0  0
    4.2846    2.0927    4.3204 C   0  0  0  0  0  0  0  0  0  0  0  0
    5.4722    1.8285    3.3400 C   0  0  1  0  0  0  0  0  0  0  0  0
    5.0994    2.0756    1.8514 C   0  0  0  0  0  0  0  0  0  0  0  0
    6.2585    1.6190    0.9627 C   0  0  0  0  0  0  0  0  0  0  0  0
    4.8508    3.5725    1.6387 C   0  0  0  0  0  0  0  0  0  0  0  0
    3.8194    1.2876    1.4615 C   0  0  0  0  0  0  0  0  0  0  0  0
   -1.9887   -1.0844   -0.4714 C   0  0  0  0  0  0  0  0  0  0  0  0
   -6.5251   -3.2756   -3.7099 N   0  0  0  0  0  0  0  0  0  0  0  0
   -0.1045   -0.0662    0.7500 N   0  0  0  0  0  0  0  0  0  0  0  0
    1.5332    0.6675    2.0871 N   0  0  0  0  0  0  0  0  0  0  0  0
   -3.7702   -2.0431   -1.6058 O   0  0  0  0  0  0  0  0  0  0  0  0
    0.8207    1.9902    0.3971 O   0  0  0  0  0  0  0  0  0  0  0  0
    6.5513    2.6970    3.6886 O   0  0  0  0  0  0  0  0  0  0  0  0
   -8.2502   -3.0649   -2.5585 H   0  0  0  0  0  0  0  0  0  0  0  0
   -8.4752   -2.7994   -4.2706 H   0  0  0  0  0  0  0  0  0  0  0  0
   -7.6767   -1.5884   -3.2959 H   0  0  0  0  0  0  0  0  0  0  0  0
   -7.4431   -4.7792   -4.8247 H   0  0  0  0  0  0  0  0  0  0  0  0
   -7.0878   -5.2080   -3.1686 H   0  0  0  0  0  0  0  0  0  0  0  0
   -5.7985   -5.1228   -4.3454 H   0  0  0  0  0  0  0  0  0  0  0  0
   -5.0811   -4.0522   -2.4056 H   0  0  0  0  0  0  0  0  0  0  0  0
   -6.2515   -2.9960   -1.6516 H   0  0  0  0  0  0  0  0  0  0  0  0
   -5.2611   -1.0797   -2.6561 H   0  0  0  0  0  0  0  0  0  0  0  0
   -4.2007   -2.0774   -3.6226 H   0  0  0  0  0  0  0  0  0  0  0  0
   -3.0162   -0.3363   -3.5593 H   0  0  0  0  0  0  0  0  0  0  0  0
   -1.1639    1.2213   -3.3881 H   0  0  0  0  0  0  0  0  0  0  0  0
    0.1679    1.3019   -1.3665 H   0  0  0  0  0  0  0  0  0  0  0  0
   -0.1528   -0.7880    1.4110 H   0  0  0  0  0  0  0  0  0  0  0  0
    1.3594   -0.1352    2.6216 H   0  0  0  0  0  0  0  0  0  0  0  0
    2.3204    2.5696    2.3333 H   0  0  0  0  0  0  0  0  0  0  0  0
    3.1780    0.2593    4.0791 H   0  0  0  0  0  0  0  0  0  0  0  0
    2.1940    1.6240    4.5520 H   0  0  0  0  0  0  0  0  0  0  0  0
    4.0592    3.1387    4.3121 H   0  0  0  0  0  0  0  0  0  0  0  0
    4.5814    1.7991    5.3056 H   0  0  0  0  0  0  0  0  0  0  0  0
    5.7835    0.8106    3.4487 H   0  0  0  0  0  0  0  0  0  0  0  0
    7.2549    2.6096    3.0414 H   0  0  0  0  0  0  0  0  0  0  0  0
    7.1074    2.2480    1.1316 H   0  0  0  0  0  0  0  0  0  0  0  0
    5.9664    1.6827   -0.0647 H   0  0  0  0  0  0  0  0  0  0  0  0
    6.5121    0.6068    1.1997 H   0  0  0  0  0  0  0  0  0  0  0  0
    5.4890    3.9334    0.8594 H   0  0  0  0  0  0  0  0  0  0  0  0
    5.0611    4.1010    2.5450 H   0  0  0  0  0  0  0  0  0  0  0  0
    3.8287    3.7284    1.3632 H   0  0  0  0  0  0  0  0  0  0  0  0
    3.5225    1.5813    0.4764 H   0  0  0  0  0  0  0  0  0  0  0  0
    4.0447    0.2416    1.4698 H   0  0  0  0  0  0  0  0  0  0  0  0
   -2.2130   -1.7151    0.3245 H   0  0  0  0  0  0  0  0  0  0  0  0
  1 20  1  0  0  0  0
  1 26  1  0  0  0  0
  1 27  1  0  0  0  0
  1 28  1  0  0  0  0
  2 20  1  0  0  0  0
  2 29  1  0  0  0  0
  2 30  1  0  0  0  0
  2 31  1  0  0  0  0
  3 20  1  0  0  0  0
  3  4  1  0  0  0  0
  3 32  1  0  0  0  0
  3 33  1  0  0  0  0
  4 23  1  0  0  0  0
  4 34  1  0  0  0  0
  4 35  1  0  0  0  0
  5 23  1  0  0  0  0
  5 19  1  0  0  0  0
  5  6  2  0  0  0  0
  6  7  1  0  0  0  0
  6 36  1  0  0  0  0
  7 37  1  0  0  0  0
  7  8  2  0  0  0  0
  8  9  1  0  0  0  0
  8 38  1  0  0  0  0
  9 21  1  0  0  0  0
  9 19  2  0  0  0  0
 10 21  1  0  0  0  0
 10 22  1  0  0  0  0
 10 24  2  0  0  0  0
 11 22  1  0  0  0  0
 11 12  1  0  0  0  0
 11 18  1  0  0  0  0
 11 41  1  6  0  0  0
 12 13  1  0  0  0  0
 12 42  1  0  0  0  0
 12 43  1  0  0  0  0
 13 14  1  0  0  0  0
 13 44  1  0  0  0  0
 13 45  1  0  0  0  0
 14 25  1  0  0  0  0
 14 15  1  0  0  0  0
 14 46  1  1  0  0  0
 15 16  1  0  0  0  0
 15 17  1  0  0  0  0
 15 18  1  0  0  0  0
 16 48  1  0  0  0  0
 16 49  1  0  0  0  0
 16 50  1  0  0  0  0
 17 51  1  0  0  0  0
 17 52  1  0  0  0  0
 17 53  1  0  0  0  0
 18 54  1  0  0  0  0
 18 55  1  0  0  0  0
 19 56  1  0  0  0  0
 21 39  1  0  0  0  0
 22 40  1  0  0  0  0
 25 47  1  0  0  0  0
M  END
>  <score>
0.44598495960235596

$$$$
PV-003595148148
 OpenBabel08202115463D

 55 57  0  0  0  0  0  0  0  0999 V2000
   -1.7112    0.9089   -1.8590 C   0  0  0  0  0  0  0  0  0  0  0  0
   -1.0967    0.3405   -0.5903 C   0  0  1  0  0  0  0  0  0  0  0  0
   -1.5001   -1.0967   -0.3534 C   0  0  0  0  0  0  0  0  0  0  0  0
   -3.6579   -1.3473   -1.4871 C   0  0  0  0  0  0  0  0  0  0  0  0
   -5.1272   -1.6785   -1.3120 C   0  0  1  0  0  0  0  0  0  0  0  0
   -6.0646   -1.4790   -2.4655 C   0  0  0  0  0  0  0  0  0  0  0  0
   -5.6748   -2.8618   -2.0463 C   0  0  1  0  0  0  0  0  0  0  0  0
   -4.7173   -3.6404   -2.9609 C   0  0  0  0  0  0  0  0  0  0  0  0
   -6.7375   -3.6609   -1.3184 C   0  0  0  0  0  0  0  0  0  0  0  0
    1.0199    1.2979    0.1737 C   0  0  0  0  0  0  0  0  0  0  0  0
    2.5170    1.3205    0.0176 C   0  0  0  0  0  0  0  0  0  0  0  0
    3.1725    2.5446    0.6763 C   0  0  0  0  0  0  0  0  0  0  0  0
    2.8980    2.5137    2.1710 C   0  0  0  0  0  0  0  0  0  0  0  0
    3.5342    1.3062    2.8491 C   0  0  0  0  0  0  0  0  0  0  0  0
    5.0223    1.2487    2.5412 C   0  0  0  0  0  0  0  0  0  0  0  0
    5.3180    1.3015    1.0528 C   0  0  0  0  0  0  0  0  0  0  0  0
    4.6775    2.5163    0.4027 C   0  0  0  0  0  0  0  0  0  0  0  0
    5.9990    0.3945    3.3343 C   0  0  0  0  0  0  0  0  0  0  0  0
    6.0399    1.9142    3.4228 C   0  0  0  0  0  0  0  0  0  0  0  0
   -2.9502   -1.2197   -0.3543 N   0  0  0  0  0  0  0  0  0  0  0  0
    0.3530    0.4631   -0.6284 N   0  0  0  0  0  0  0  0  0  0  0  0
   -3.1638   -1.2083   -2.6046 O   0  0  0  0  0  0  0  0  0  0  0  0
    0.4501    2.0698    0.9434 O   0  0  0  0  0  0  0  0  0  0  0  0
   -7.5475   -4.2709   -2.2304 F   0  0  0  0  0  0  0  0  0  0  0  0
   -7.5255   -2.8231   -0.6004 F   0  0  0  0  0  0  0  0  0  0  0  0
   -1.3383    0.3738   -2.7073 H   0  0  0  0  0  0  0  0  0  0  0  0
   -1.4522    1.9433   -1.9481 H   0  0  0  0  0  0  0  0  0  0  0  0
   -2.7756    0.8098   -1.8149 H   0  0  0  0  0  0  0  0  0  0  0  0
   -1.4589    0.9203    0.2328 H   0  0  0  0  0  0  0  0  0  0  0  0
   -1.1191   -1.4190    0.5931 H   0  0  0  0  0  0  0  0  0  0  0  0
   -1.0932   -1.7103   -1.1298 H   0  0  0  0  0  0  0  0  0  0  0  0
   -3.4263   -1.2090    0.5021 H   0  0  0  0  0  0  0  0  0  0  0  0
   -5.5329   -1.4977   -0.3385 H   0  0  0  0  0  0  0  0  0  0  0  0
   -5.7003   -1.0768   -3.3876 H   0  0  0  0  0  0  0  0  0  0  0  0
   -7.0602   -1.1278   -2.2912 H   0  0  0  0  0  0  0  0  0  0  0  0
   -5.2777   -4.1346   -3.7267 H   0  0  0  0  0  0  0  0  0  0  0  0
   -4.1849   -4.3670   -2.3835 H   0  0  0  0  0  0  0  0  0  0  0  0
   -4.0223   -2.9617   -3.4096 H   0  0  0  0  0  0  0  0  0  0  0  0
   -6.2589   -4.3796   -0.6865 H   0  0  0  0  0  0  0  0  0  0  0  0
    0.8575   -0.0857   -1.2645 H   0  0  0  0  0  0  0  0  0  0  0  0
    2.7504    1.3298   -1.0266 H   0  0  0  0  0  0  0  0  0  0  0  0
    2.9195    0.4362    0.4657 H   0  0  0  0  0  0  0  0  0  0  0  0
    2.7569    3.4389    0.2612 H   0  0  0  0  0  0  0  0  0  0  0  0
    3.2937    3.4046    2.6122 H   0  0  0  0  0  0  0  0  0  0  0  0
    1.8399    2.4779    2.3261 H   0  0  0  0  0  0  0  0  0  0  0  0
    3.0654    0.4134    2.4913 H   0  0  0  0  0  0  0  0  0  0  0  0
    3.3959    1.3827    3.9074 H   0  0  0  0  0  0  0  0  0  0  0  0
    4.9341    0.4163    0.5902 H   0  0  0  0  0  0  0  0  0  0  0  0
    6.3774    1.3484    0.9100 H   0  0  0  0  0  0  0  0  0  0  0  0
    4.8418    2.4768   -0.6538 H   0  0  0  0  0  0  0  0  0  0  0  0
    5.1236    3.4037    0.8007 H   0  0  0  0  0  0  0  0  0  0  0  0
    6.7806   -0.1355    2.8311 H   0  0  0  0  0  0  0  0  0  0  0  0
    5.6544   -0.1829    4.1666 H   0  0  0  0  0  0  0  0  0  0  0  0
    6.8546    2.4527    2.9855 H   0  0  0  0  0  0  0  0  0  0  0  0
    5.7285    2.4052    4.3211 H   0  0  0  0  0  0  0  0  0  0  0  0
  1  2  1  0  0  0  0
  1 26  1  0  0  0  0
  1 27  1  0  0  0  0
  1 28  1  0  0  0  0
  2  3  1  0  0  0  0
  2 21  1  0  0  0  0
  2 29  1  1  0  0  0
  3 20  1  0  0  0  0
  3 30  1  0  0  0  0
  3 31  1  0  0  0  0
  4 20  1  0  0  0  0
  4  5  1  0  0  0  0
  4 22  2  0  0  0  0
  5  6  1  0  0  0  0
  5  7  1  0  0  0  0
  5 33  1  1  0  0  0
  6  7  1  0  0  0  0
  6 34  1  0  0  0  0
  6 35  1  0  0  0  0
  7  8  1  6  0  0  0
  7  9  1  0  0  0  0
  8 36  1  0  0  0  0
  8 37  1  0  0  0  0
  8 38  1  0  0  0  0
  9 24  1  0  0  0  0
  9 25  1  0  0  0  0
  9 39  1  0  0  0  0
 10 21  1  0  0  0  0
 10 11  1  0  0  0  0
 10 23  2  0  0  0  0
 11 12  1  0  0  0  0
 11 41  1  0  0  0  0
 11 42  1  0  0  0  0
 12 13  1  0  0  0  0
 12 17  1  0  0  0  0
 12 43  1  0  0  0  0
 13 14  1  0  0  0  0
 13 44  1  0  0  0  0
 13 45  1  0  0  0  0
 14 15  1  0  0  0  0
 14 46  1  0  0  0  0
 14 47  1  0  0  0  0
 15 16  1  0  0  0  0
 15 18  1  0  0  0  0
 15 19  1  0  0  0  0
 16 17  1  0  0  0  0
 16 48  1  0  0  0  0
 16 49  1  0  0  0  0
 17 50  1  0  0  0  0
 17 51  1  0  0  0  0
 18 19  1  0  0  0  0
 18 52  1  0  0  0  0
 18 53  1  0  0  0  0
 19 54  1  0  0  0  0
 19 55  1  0  0  0  0
 20 32  1  0  0  0  0
 21 40  1  0  0  0  0
M  END
>  <score>
0.44603490829467773

$$$$
PV-003479433666
 OpenBabel08202115463D

 54 54  0  0  0  0  0  0  0  0999 V2000
    5.8778    2.9092    2.5563 C   0  0  0  0  0  0  0  0  0  0  0  0
    5.8358    1.4253    2.8873 C   0  0  0  0  0  0  0  0  0  0  0  0
    4.5781    0.7329    2.3907 C   0  0  1  0  0  0  0  0  0  0  0  0
    3.3703    1.2914    3.1016 C   0  0  0  0  0  0  0  0  0  0  0  0
    2.0522    0.5998    2.7940 C   0  0  0  0  0  0  0  0  0  0  0  0
    1.5883    0.9256    1.3801 C   0  0  0  0  0  0  0  0  0  0  0  0
   -0.2421    0.4795   -0.2622 C   0  0  0  0  0  0  0  0  0  0  0  0
    0.7360    0.2488   -1.4232 C   0  0  0  0  0  0  0  0  0  0  0  0
   -0.8698    1.8710   -0.4266 C   0  0  0  0  0  0  0  0  0  0  0  0
   -1.3561   -0.5553   -0.3682 C   0  0  0  0  0  0  0  0  0  0  0  0
   -2.1451   -0.4597   -1.6615 C   0  0  0  0  0  0  0  0  0  0  0  0
   -4.4525   -1.2570   -1.8479 C   0  0  0  0  0  0  0  0  0  0  0  0
   -5.3709   -2.4178   -2.1589 C   0  0  1  0  0  0  0  0  0  0  0  0
   -6.5209   -2.4999   -1.1643 C   0  0  0  0  0  0  0  0  0  0  0  0
   -7.4180   -2.9480   -3.2263 C   0  0  0  0  0  0  0  0  0  0  0  0
   -6.1198   -2.2005   -3.4663 C   0  0  0  0  0  0  0  0  0  0  0  0
    5.2756    0.2666    0.1305 C   0  0  0  0  0  0  0  0  0  0  0  0
    2.2263    1.6807    0.6513 O   0  0  0  0  0  0  0  0  0  0  0  0
   -4.9051   -0.1184   -1.7426 O   0  0  0  0  0  0  0  0  0  0  0  0
   -7.6289   -3.0918   -1.9148 O   0  0  0  0  0  0  0  0  0  0  0  0
   -8.1484   -3.3511   -4.0881 O   0  0  0  0  0  0  0  0  0  0  0  0
    4.3892    0.9452    0.9918 O   0  0  0  0  0  0  0  0  0  0  0  0
    0.4439    0.3153    1.0336 N   0  0  0  0  0  0  0  0  0  0  0  0
   -3.1432   -1.5159   -1.7872 N   0  0  0  0  0  0  0  0  0  0  0  0
    5.7775    3.0424    1.4994 H   0  0  0  0  0  0  0  0  0  0  0  0
    6.8111    3.3204    2.8803 H   0  0  0  0  0  0  0  0  0  0  0  0
    5.0746    3.4088    3.0564 H   0  0  0  0  0  0  0  0  0  0  0  0
    5.8876    1.3132    3.9502 H   0  0  0  0  0  0  0  0  0  0  0  0
    6.6836    0.9530    2.4366 H   0  0  0  0  0  0  0  0  0  0  0  0
    4.6507   -0.3139    2.6004 H   0  0  0  0  0  0  0  0  0  0  0  0
    3.2738    2.3213    2.8278 H   0  0  0  0  0  0  0  0  0  0  0  0
    3.5439    1.2165    4.1547 H   0  0  0  0  0  0  0  0  0  0  0  0
    1.3112    0.9308    3.4913 H   0  0  0  0  0  0  0  0  0  0  0  0
    2.1815   -0.4584    2.8857 H   0  0  0  0  0  0  0  0  0  0  0  0
    0.0332   -0.2844    1.6910 H   0  0  0  0  0  0  0  0  0  0  0  0
    1.6062    0.8554   -1.2829 H   0  0  0  0  0  0  0  0  0  0  0  0
    0.2626    0.5126   -2.3458 H   0  0  0  0  0  0  0  0  0  0  0  0
    1.0207   -0.7823   -1.4498 H   0  0  0  0  0  0  0  0  0  0  0  0
   -1.6486    1.9992    0.2959 H   0  0  0  0  0  0  0  0  0  0  0  0
   -1.2783    1.9636   -1.4112 H   0  0  0  0  0  0  0  0  0  0  0  0
   -0.1200    2.6199   -0.2791 H   0  0  0  0  0  0  0  0  0  0  0  0
   -2.0294   -0.4140    0.4513 H   0  0  0  0  0  0  0  0  0  0  0  0
   -0.9200   -1.5305   -0.3081 H   0  0  0  0  0  0  0  0  0  0  0  0
   -1.4648   -0.5312   -2.4842 H   0  0  0  0  0  0  0  0  0  0  0  0
   -2.6425    0.4872   -1.6905 H   0  0  0  0  0  0  0  0  0  0  0  0
   -2.8429   -2.4479   -1.8285 H   0  0  0  0  0  0  0  0  0  0  0  0
   -4.8049   -3.3257   -2.1784 H   0  0  0  0  0  0  0  0  0  0  0  0
   -6.2560   -3.1198   -0.3335 H   0  0  0  0  0  0  0  0  0  0  0  0
   -6.7840   -1.5242   -0.8124 H   0  0  0  0  0  0  0  0  0  0  0  0
   -6.2989   -1.1602   -3.6413 H   0  0  0  0  0  0  0  0  0  0  0  0
   -5.5822   -2.6144   -4.2936 H   0  0  0  0  0  0  0  0  0  0  0  0
    6.2712    0.6261    0.2871 H   0  0  0  0  0  0  0  0  0  0  0  0
    4.9892    0.4415   -0.8855 H   0  0  0  0  0  0  0  0  0  0  0  0
    5.2392   -0.7828    0.3363 H   0  0  0  0  0  0  0  0  0  0  0  0
  1  2  1  0  0  0  0
  1 25  1  0  0  0  0
  1 26  1  0  0  0  0
  1 27  1  0  0  0  0
  2  3  1  0  0  0  0
  2 28  1  0  0  0  0
  2 29  1  0  0  0  0
  3  4  1  0  0  0  0
  3 22  1  0  0  0  0
  3 30  1  1  0  0  0
  4  5  1  0  0  0  0
  4 31  1  0  0  0  0
  4 32  1  0  0  0  0
  5  6  1  0  0  0  0
  5 33  1  0  0  0  0
  5 34  1  0  0  0  0
  6 23  1  0  0  0  0
  6 18  2  0  0  0  0
  7 23  1  0  0  0  0
  7  8  1  0  0  0  0
  7  9  1  0  0  0  0
  7 10  1  0  0  0  0
  8 36  1  0  0  0  0
  8 37  1  0  0  0  0
  8 38  1  0  0  0  0
  9 39  1  0  0  0  0
  9 40  1  0  0  0  0
  9 41  1  0  0  0  0
 10 11  1  0  0  0  0
 10 42  1  0  0  0  0
 10 43  1  0  0  0  0
 11 24  1  0  0  0  0
 11 44  1  0  0  0  0
 11 45  1  0  0  0  0
 12 24  1  0  0  0  0
 12 13  1  0  0  0  0
 12 19  2  0  0  0  0
 13 14  1  0  0  0  0
 13 16  1  0  0  0  0
 13 47  1  6  0  0  0
 14 20  1  0  0  0  0
 14 48  1  0  0  0  0
 14 49  1  0  0  0  0
 15 20  1  0  0  0  0
 15 16  1  0  0  0  0
 15 21  2  0  0  0  0
 16 50  1  0  0  0  0
 16 51  1  0  0  0  0
 17 22  1  0  0  0  0
 17 52  1  0  0  0  0
 17 53  1  0  0  0  0
 17 54  1  0  0  0  0
 23 35  1  0  0  0  0
 24 46  1  0  0  0  0
M  END
>  <score>
0.44620251655578613

$$$$
PV-003116362134
 OpenBabel08202115463D

 47 48  0  0  0  0  0  0  0  0999 V2000
    5.4153    0.1641    3.9370 C   0  0  0  0  0  0  0  0  0  0  0  0
    5.0810    0.6287    2.5289 C   0  0  0  0  0  0  0  0  0  0  0  0
    6.2871    0.4233    1.6270 C   0  0  0  0  0  0  0  0  0  0  0  0
    4.6212    2.1067    2.5212 C   0  0  0  0  0  0  0  0  0  0  0  0
    3.1119    1.9885    2.6195 C   0  0  0  0  0  0  0  0  0  0  0  0
    1.4156    0.2064    2.3358 C   0  0  0  0  0  0  0  0  0  0  0  0
    0.8532    0.0109    0.9297 C   0  0  0  0  0  0  0  0  0  0  0  0
   -1.0038   -0.8988   -0.3861 C   0  0  0  0  0  0  0  0  0  0  0  0
   -1.8611    0.2429   -0.8824 C   0  0  1  0  0  0  0  0  0  0  0  0
   -1.0479    1.4494   -1.2015 C   0  0  0  0  0  0  0  0  0  0  0  0
   -3.8192   -0.7195   -2.0965 C   0  0  0  0  0  0  0  0  0  0  0  0
   -4.3376   -1.0254   -3.4798 C   0  0  0  0  0  0  0  0  0  0  0  0
   -6.7926   -1.4727   -3.7622 C   0  0  0  0  0  0  0  0  0  0  0  0
   -6.7824   -3.5192   -3.4108 C   0  0  0  0  0  0  0  0  0  0  0  0
    2.3366    2.8844    2.9104 O   0  0  0  0  0  0  0  0  0  0  0  0
    1.4422    0.4534   -0.0556 O   0  0  0  0  0  0  0  0  0  0  0  0
   -1.7679    2.4975   -1.8141 O   0  0  0  0  0  0  0  0  0  0  0  0
   -4.4753   -0.9819   -1.0893 O   0  0  0  0  0  0  0  0  0  0  0  0
    3.9230   -0.0571    2.0150 O   0  0  0  0  0  0  0  0  0  0  0  0
    2.7845    0.7215    2.3290 N   0  0  0  0  0  0  0  0  0  0  0  0
   -0.3439   -0.5942    0.8747 N   0  0  0  0  0  0  0  0  0  0  0  0
   -2.5998   -0.1466   -2.0896 N   0  0  0  0  0  0  0  0  0  0  0  0
   -5.5420   -1.8547   -3.5158 N   0  0  0  0  0  0  0  0  0  0  0  0
   -7.6145   -2.5044   -3.7052 N   0  0  0  0  0  0  0  0  0  0  0  0
   -5.5090   -3.1941   -3.2857 N   0  0  0  0  0  0  0  0  0  0  0  0
    4.5233   -0.1706    4.4240 H   0  0  0  0  0  0  0  0  0  0  0  0
    5.8394    0.9766    4.4891 H   0  0  0  0  0  0  0  0  0  0  0  0
    6.1187   -0.6408    3.8891 H   0  0  0  0  0  0  0  0  0  0  0  0
    7.0938    1.0405    1.9633 H   0  0  0  0  0  0  0  0  0  0  0  0
    6.0303    0.6882    0.6226 H   0  0  0  0  0  0  0  0  0  0  0  0
    6.5862   -0.6036    1.6601 H   0  0  0  0  0  0  0  0  0  0  0  0
    4.9113    2.5959    1.6149 H   0  0  0  0  0  0  0  0  0  0  0  0
    5.0215    2.6393    3.3585 H   0  0  0  0  0  0  0  0  0  0  0  0
    0.7917    0.8993    2.8607 H   0  0  0  0  0  0  0  0  0  0  0  0
    1.4071   -0.7363    2.8421 H   0  0  0  0  0  0  0  0  0  0  0  0
   -0.7889   -0.8392    1.7127 H   0  0  0  0  0  0  0  0  0  0  0  0
   -1.6247   -1.7593   -0.2489 H   0  0  0  0  0  0  0  0  0  0  0  0
   -0.2563   -1.1112   -1.1217 H   0  0  0  0  0  0  0  0  0  0  0  0
   -2.5594    0.5013   -0.1140 H   0  0  0  0  0  0  0  0  0  0  0  0
   -0.2595    1.1553   -1.8625 H   0  0  0  0  0  0  0  0  0  0  0  0
   -0.6294    1.8206   -0.2894 H   0  0  0  0  0  0  0  0  0  0  0  0
   -1.4775    3.3389   -1.4543 H   0  0  0  0  0  0  0  0  0  0  0  0
   -2.1739    0.0228   -2.9558 H   0  0  0  0  0  0  0  0  0  0  0  0
   -3.5666   -1.5356   -4.0184 H   0  0  0  0  0  0  0  0  0  0  0  0
   -4.5582   -0.0976   -3.9649 H   0  0  0  0  0  0  0  0  0  0  0  0
   -7.0826   -0.4960   -3.9708 H   0  0  0  0  0  0  0  0  0  0  0  0
   -7.1198   -4.4954   -3.2898 H   0  0  0  0  0  0  0  0  0  0  0  0
  1  2  1  0  0  0  0
  1 26  1  0  0  0  0
  1 27  1  0  0  0  0
  1 28  1  0  0  0  0
  2  3  1  0  0  0  0
  2  4  1  0  0  0  0
  2 19  1  0  0  0  0
  3 29  1  0  0  0  0
  3 30  1  0  0  0  0
  3 31  1  0  0  0  0
  4  5  1  0  0  0  0
  4 32  1  0  0  0  0
  4 33  1  0  0  0  0
  5 20  1  0  0  0  0
  5 15  2  0  0  0  0
  6 20  1  0  0  0  0
  6  7  1  0  0  0  0
  6 34  1  0  0  0  0
  6 35  1  0  0  0  0
  7 21  1  0  0  0  0
  7 16  2  0  0  0  0
  8 21  1  0  0  0  0
  8  9  1  0  0  0  0
  8 37  1  0  0  0  0
  8 38  1  0  0  0  0
  9 10  1  0  0  0  0
  9 22  1  0  0  0  0
  9 39  1  1  0  0  0
 10 17  1  0  0  0  0
 10 40  1  0  0  0  0
 10 41  1  0  0  0  0
 11 22  1  0  0  0  0
 11 12  1  0  0  0  0
 11 18  2  0  0  0  0
 12 23  1  0  0  0  0
 12 44  1  0  0  0  0
 12 45  1  0  0  0  0
 13 23  1  0  0  0  0
 13 46  1  0  0  0  0
 13 24  2  0  0  0  0
 14 24  1  0  0  0  0
 14 47  1  0  0  0  0
 14 25  2  0  0  0  0
 17 42  1  0  0  0  0
 20 19  1  0  0  0  0
 21 36  1  0  0  0  0
 22 43  1  0  0  0  0
 23 25  1  0  0  0  0
M  END
>  <score>
0.44622224569320679

$$$$
PV-004135525157
 OpenBabel08202115463D

 55 56  0  0  0  0  0  0  0  0999 V2000
   -7.9139   -3.7533   -5.9830 C   0  0  0  0  0  0  0  0  0  0  0  0
   -6.0382   -2.7115   -4.2068 C   0  0  0  0  0  0  0  0  0  0  0  0
   -5.1383   -2.9179   -3.0095 C   0  0  0  0  0  0  0  0  0  0  0  0
   -3.5554   -1.9542   -1.4072 C   0  0  2  0  0  0  0  0  0  0  0  0
   -3.1519   -0.5997   -0.7695 C   0  0  0  0  0  0  0  0  0  0  0  0
   -1.8244   -0.6057   -1.5843 C   0  0  1  0  0  0  0  0  0  0  0  0
   -0.5830   -0.2891   -0.7726 C   0  0  0  0  0  0  0  0  0  0  0  0
   -0.2874    1.1981   -0.6794 C   0  0  0  0  0  0  0  0  0  0  0  0
    1.1951    2.7571    0.5192 C   0  0  0  0  0  0  0  0  0  0  0  0
    2.4011    2.9077    1.3638 C   0  0  0  0  0  0  0  0  0  0  0  0
    2.9966    1.8239    1.9811 C   0  0  0  0  0  0  0  0  0  0  0  0
    4.1287    2.0056    2.7602 C   0  0  0  0  0  0  0  0  0  0  0  0
    4.7931    0.8031    3.4404 C   0  0  0  0  0  0  0  0  0  0  0  0
    4.6929    0.9880    4.9574 C   0  0  0  0  0  0  0  0  0  0  0  0
    6.2808    0.7124    3.0942 C   0  0  0  0  0  0  0  0  0  0  0  0
    4.1333   -0.4952    3.0176 C   0  0  0  0  0  0  0  0  0  0  0  0
    4.6588    3.2715    2.9240 C   0  0  0  0  0  0  0  0  0  0  0  0
    4.0616    4.3585    2.3049 C   0  0  0  0  0  0  0  0  0  0  0  0
    2.9329    4.1772    1.5282 C   0  0  0  0  0  0  0  0  0  0  0  0
   -2.0638   -2.1113   -1.8345 C   0  0  0  0  0  0  0  0  0  0  0  0
   -6.8454   -4.2775   -4.6284 S   0  0  0  0  0  0  0  0  0  0  0  0
   -5.0005   -4.0331   -2.5085 O   0  0  0  0  0  0  0  0  0  0  0  0
    0.5986    3.7390    0.0977 O   0  0  0  0  0  0  0  0  0  0  0  0
   -4.4959   -1.8497   -2.5112 N   0  0  0  0  0  0  0  0  0  0  0  0
    0.8039    1.4966    0.2497 N   0  0  0  0  0  0  0  0  0  0  0  0
   -8.3247   -4.6143   -6.4677 H   0  0  0  0  0  0  0  0  0  0  0  0
   -7.3432   -3.1858   -6.6880 H   0  0  0  0  0  0  0  0  0  0  0  0
   -8.7080   -3.1487   -5.5971 H   0  0  0  0  0  0  0  0  0  0  0  0
   -6.7815   -1.9784   -3.9726 H   0  0  0  0  0  0  0  0  0  0  0  0
   -5.4546   -2.3755   -5.0384 H   0  0  0  0  0  0  0  0  0  0  0  0
   -4.6667   -0.9688   -2.9052 H   0  0  0  0  0  0  0  0  0  0  0  0
   -3.9012   -2.6903   -0.7118 H   0  0  0  0  0  0  0  0  0  0  0  0
   -3.0129   -0.6412    0.2906 H   0  0  0  0  0  0  0  0  0  0  0  0
   -3.8088    0.2093   -1.0123 H   0  0  0  0  0  0  0  0  0  0  0  0
   -1.8392    0.0009   -2.4656 H   0  0  0  0  0  0  0  0  0  0  0  0
    0.2542   -0.7733   -1.2304 H   0  0  0  0  0  0  0  0  0  0  0  0
   -0.7187   -0.6708    0.2177 H   0  0  0  0  0  0  0  0  0  0  0  0
   -1.1698    1.7027   -0.3452 H   0  0  0  0  0  0  0  0  0  0  0  0
   -0.0178    1.5557   -1.6512 H   0  0  0  0  0  0  0  0  0  0  0  0
    1.2660    0.7534    0.6909 H   0  0  0  0  0  0  0  0  0  0  0  0
    2.5953    0.8720    1.8611 H   0  0  0  0  0  0  0  0  0  0  0  0
    3.6653    1.0904    5.2376 H   0  0  0  0  0  0  0  0  0  0  0  0
    5.2302    1.8673    5.2456 H   0  0  0  0  0  0  0  0  0  0  0  0
    5.1131    0.1355    5.4490 H   0  0  0  0  0  0  0  0  0  0  0  0
    6.3963    0.6291    2.0337 H   0  0  0  0  0  0  0  0  0  0  0  0
    6.7050   -0.1483    3.5676 H   0  0  0  0  0  0  0  0  0  0  0  0
    6.7813    1.5929    3.4392 H   0  0  0  0  0  0  0  0  0  0  0  0
    4.6101   -1.3157    3.5119 H   0  0  0  0  0  0  0  0  0  0  0  0
    4.2270   -0.6142    1.9583 H   0  0  0  0  0  0  0  0  0  0  0  0
    3.0973   -0.4718    3.2841 H   0  0  0  0  0  0  0  0  0  0  0  0
    5.5058    3.4085    3.5117 H   0  0  0  0  0  0  0  0  0  0  0  0
    4.4629    5.3105    2.4249 H   0  0  0  0  0  0  0  0  0  0  0  0
    2.4825    4.9933    1.0670 H   0  0  0  0  0  0  0  0  0  0  0  0
   -1.9318   -2.4097   -2.8535 H   0  0  0  0  0  0  0  0  0  0  0  0
   -1.4937   -2.7546   -1.1972 H   0  0  0  0  0  0  0  0  0  0  0  0
  1 21  1  0  0  0  0
  1 26  1  0  0  0  0
  1 27  1  0  0  0  0
  1 28  1  0  0  0  0
  2 21  1  0  0  0  0
  2  3  1  0  0  0  0
  2 29  1  0  0  0  0
  2 30  1  0  0  0  0
  3 24  1  0  0  0  0
  3 22  2  0  0  0  0
  4 24  1  0  0  0  0
  4  5  1  0  0  0  0
  4 20  1  0  0  0  0
  4 32  1  1  0  0  0
  5  6  1  0  0  0  0
  5 33  1  0  0  0  0
  5 34  1  0  0  0  0
  6  7  1  0  0  0  0
  6 20  1  0  0  0  0
  6 35  1  6  0  0  0
  7  8  1  0  0  0  0
  7 36  1  0  0  0  0
  7 37  1  0  0  0  0
  8 25  1  0  0  0  0
  8 38  1  0  0  0  0
  8 39  1  0  0  0  0
  9 25  1  0  0  0  0
  9 10  1  0  0  0  0
  9 23  2  0  0  0  0
 10 19  1  0  0  0  0
 10 11  2  0  0  0  0
 11 12  1  0  0  0  0
 11 41  1  0  0  0  0
 12 13  1  0  0  0  0
 12 17  2  0  0  0  0
 13 14  1  0  0  0  0
 13 15  1  0  0  0  0
 13 16  1  0  0  0  0
 14 42  1  0  0  0  0
 14 43  1  0  0  0  0
 14 44  1  0  0  0  0
 15 45  1  0  0  0  0
 15 46  1  0  0  0  0
 15 47  1  0  0  0  0
 16 48  1  0  0  0  0
 16 49  1  0  0  0  0
 16 50  1  0  0  0  0
 17 18  1  0  0  0  0
 17 51  1  0  0  0  0
 18 52  1  0  0  0  0
 18 19  2  0  0  0  0
 19 53  1  0  0  0  0
 20 54  1  0  0  0  0
 20 55  1  0  0  0  0
 24 31  1  0  0  0  0
 25 40  1  0  0  0  0
M  END
>  <score>
0.44628328084945679

$$$$
Z3504287554
 OpenBabel08202115463D

 41 44  0  0  0  0  0  0  0  0999 V2000
    5.3269    2.6452    2.5190 C   0  0  0  0  0  0  0  0  0  0  0  0
    4.2049    1.8609    1.9058 C   0  0  2  0  0  0  0  0  0  0  0  0
    4.2657    0.4258    1.4735 C   0  0  0  0  0  0  0  0  0  0  0  0
    2.9237    0.0518    0.9177 C   0  0  0  0  0  0  0  0  0  0  0  0
    2.0334    1.2558    1.0065 C   0  0  1  0  0  0  0  0  0  0  0  0
    0.6024    1.3289    0.5626 C   0  0  0  0  0  0  0  0  0  0  0  0
   -1.4913    0.1957   -0.4776 C   0  0  0  0  0  0  0  0  0  0  0  0
   -2.1541   -1.0106   -1.0739 C   0  0  0  0  0  0  0  0  0  0  0  0
   -1.5166   -2.3514   -1.2883 C   0  0  0  0  0  0  0  0  0  0  0  0
   -3.8089   -2.4765   -2.0757 C   0  0  0  0  0  0  0  0  0  0  0  0
   -5.0914   -2.9934   -2.6571 C   0  0  0  0  0  0  0  0  0  0  0  0
   -5.8833   -4.1114   -3.2677 C   0  0  0  0  0  0  0  0  0  0  0  0
   -6.5209   -2.7707   -3.0534 C   0  0  0  0  0  0  0  0  0  0  0  0
    1.9725    2.6908    1.4388 C   0  0  0  0  0  0  0  0  0  0  0  0
    2.8253    2.3738    1.6172 C   0  0  0  0  0  0  0  0  0  0  0  0
   -0.0603    0.1226   -0.0337 N   0  0  0  0  0  0  0  0  0  0  0  0
   -2.5393   -3.2572   -1.9074 N   0  0  0  0  0  0  0  0  0  0  0  0
   -3.5709   -1.0879   -1.5606 S   0  0  0  0  0  0  0  0  0  0  0  0
    3.3147    3.0648    1.9946 O   0  0  0  0  0  0  0  0  0  0  0  0
    5.6865    2.1302    3.4098 H   0  0  0  0  0  0  0  0  0  0  0  0
    4.9687    3.6376    2.7930 H   0  0  0  0  0  0  0  0  0  0  0  0
    6.1406    2.7379    1.7998 H   0  0  0  0  0  0  0  0  0  0  0  0
    4.5017   -0.2082    2.3282 H   0  0  0  0  0  0  0  0  0  0  0  0
    5.0308    0.3026    0.7069 H   0  0  0  0  0  0  0  0  0  0  0  0
    2.4979   -0.7665    1.4984 H   0  0  0  0  0  0  0  0  0  0  0  0
    3.0270   -0.2557   -0.1229 H   0  0  0  0  0  0  0  0  0  0  0  0
    0.5448    2.1208   -0.1841 H   0  0  0  0  0  0  0  0  0  0  0  0
    0.0158    1.6100    1.4372 H   0  0  0  0  0  0  0  0  0  0  0  0
   -0.0038   -0.6548    0.6993 H   0  0  0  0  0  0  0  0  0  0  0  0
   -1.5489    0.9876   -1.2243 H   0  0  0  0  0  0  0  0  0  0  0  0
   -2.0780    0.4769    0.3969 H   0  0  0  0  0  0  0  0  0  0  0  0
   -0.4903   -2.6202   -1.0381 H   0  0  0  0  0  0  0  0  0  0  0  0
   -5.4154   -3.3061   -1.6645 H   0  0  0  0  0  0  0  0  0  0  0  0
   -6.1851   -4.9622   -2.6568 H   0  0  0  0  0  0  0  0  0  0  0  0
   -5.6561   -4.4514   -4.2781 H   0  0  0  0  0  0  0  0  0  0  0  0
   -6.7568   -2.1368   -3.9081 H   0  0  0  0  0  0  0  0  0  0  0  0
   -7.2859   -2.6475   -2.2868 H   0  0  0  0  0  0  0  0  0  0  0  0
    1.2075    2.8140    2.2054 H   0  0  0  0  0  0  0  0  0  0  0  0
    1.7366    3.3248    0.5841 H   0  0  0  0  0  0  0  0  0  0  0  0
    2.8801    3.2111    0.9214 H   0  0  0  0  0  0  0  0  0  0  0  0
    2.3510    2.7003    2.5427 H   0  0  0  0  0  0  0  0  0  0  0  0
  1 20  1  0  0  0  0
  1 21  1  0  0  0  0
  1 22  1  0  0  0  0
  2  1  1  6  0  0  0
  2  3  1  0  0  0  0
  2 19  1  0  0  0  0
  2 15  1  0  0  0  0
  3  4  1  0  0  0  0
  3 23  1  0  0  0  0
  3 24  1  0  0  0  0
  4  5  1  0  0  0  0
  4 25  1  0  0  0  0
  4 26  1  0  0  0  0
  5  6  1  6  0  0  0
  5 14  1  0  0  0  0
  5 15  1  0  0  0  0
  6 16  1  0  0  0  0
  6 27  1  0  0  0  0
  6 28  1  0  0  0  0
  7 16  1  0  0  0  0
  7  8  1  0  0  0  0
  7 30  1  0  0  0  0
  7 31  1  0  0  0  0
  8 18  1  0  0  0  0
  8  9  2  0  0  0  0
  9 17  1  0  0  0  0
  9 32  1  0  0  0  0
 10 11  1  0  0  0  0
 10 18  1  0  0  0  0
 10 17  2  0  0  0  0
 11 12  1  0  0  0  0
 11 13  1  0  0  0  0
 11 33  1  0  0  0  0
 12 13  1  0  0  0  0
 12 34  1  0  0  0  0
 12 35  1  0  0  0  0
 13 36  1  0  0  0  0
 13 37  1  0  0  0  0
 14 19  1  0  0  0  0
 14 38  1  0  0  0  0
 14 39  1  0  0  0  0
 15 40  1  0  0  0  0
 15 41  1  0  0  0  0
 16 29  1  0  0  0  0
M  END
>  <score>
0.44633334875106812

$$$$
PV-003679628857
 OpenBabel08202115463D

 45 46  0  0  0  0  0  0  0  0999 V2000
    0.3234   -0.7916   -1.3251 O   0  0  0  0  0  0  0  0  0  0  0  0
   -1.9389   -2.6414   -1.9400 O   0  0  0  0  0  0  0  0  0  0  0  0
   -2.5201   -0.3156   -2.5865 O   0  0  0  0  0  0  0  0  0  0  0  0
    1.4582    3.0375    0.8448 O   0  0  0  0  0  0  0  0  0  0  0  0
    3.4747    3.1093    2.3726 O   0  0  0  0  0  0  0  0  0  0  0  0
   -0.2857   -0.4395   -0.3158 C   0  0  0  0  0  0  0  0  0  0  0  0
   -1.7408   -0.7736   -0.1255 C   0  0  0  0  0  0  0  0  0  0  0  0
   -4.2290   -1.7430   -1.1251 C   0  0  0  0  0  0  0  0  0  0  0  0
   -5.0048   -2.2448   -2.3079 C   0  0  0  0  0  0  0  0  0  0  0  0
   -4.8811   -3.5334   -2.7915 C   0  0  0  0  0  0  0  0  0  0  0  0
   -5.6979   -3.9344   -3.8324 C   0  0  0  0  0  0  0  0  0  0  0  0
   -6.6090   -3.0323   -4.3461 C   0  0  0  0  0  0  0  0  0  0  0  0
   -6.6686   -1.7624   -3.7993 C   0  0  0  0  0  0  0  0  0  0  0  0
    1.7166    0.6237    0.6615 C   0  0  1  0  0  0  0  0  0  0  0  0
    1.9069    1.9690    0.0167 C   0  0  0  0  0  0  0  0  0  0  0  0
    2.2921    0.5721    2.0582 C   0  0  0  0  0  0  0  0  0  0  0  0
    4.1878    2.1087    2.3096 C   0  0  0  0  0  0  0  0  0  0  0  0
    5.6674    2.2871    2.4945 C   0  0  0  0  0  0  0  0  0  0  0  0
    6.4688    1.9416    3.7103 C   0  0  0  0  0  0  0  0  0  0  0  0
    6.2867    3.3748    3.3205 C   0  0  0  0  0  0  0  0  0  0  0  0
   -2.5605   -1.3969   -1.6657 S   0  0  0  0  0  0  0  0  0  0  0  0
   -5.8799   -1.3588   -2.7931 N   0  0  0  0  0  0  0  0  0  0  0  0
    0.2874    0.2576    0.6780 N   0  0  0  0  0  0  0  0  0  0  0  0
    3.7240    0.8757    2.0870 N   0  0  0  0  0  0  0  0  0  0  0  0
   -2.2520    0.1094    0.1969 H   0  0  0  0  0  0  0  0  0  0  0  0
   -1.8196   -1.5277    0.6294 H   0  0  0  0  0  0  0  0  0  0  0  0
   -4.6808   -0.8497   -0.7471 H   0  0  0  0  0  0  0  0  0  0  0  0
   -4.2147   -2.4883   -0.3575 H   0  0  0  0  0  0  0  0  0  0  0  0
   -4.1865   -4.1892   -2.3801 H   0  0  0  0  0  0  0  0  0  0  0  0
   -5.6277   -4.8965   -4.2211 H   0  0  0  0  0  0  0  0  0  0  0  0
   -7.2383   -3.3023   -5.1289 H   0  0  0  0  0  0  0  0  0  0  0  0
   -7.3587   -1.0883   -4.1878 H   0  0  0  0  0  0  0  0  0  0  0  0
   -0.2626    0.5329    1.4409 H   0  0  0  0  0  0  0  0  0  0  0  0
    2.2387   -0.0970    0.0674 H   0  0  0  0  0  0  0  0  0  0  0  0
    1.3564    1.9910   -0.9006 H   0  0  0  0  0  0  0  0  0  0  0  0
    2.9480    2.1073   -0.1881 H   0  0  0  0  0  0  0  0  0  0  0  0
    0.6378    3.3919    0.4941 H   0  0  0  0  0  0  0  0  0  0  0  0
    2.1418   -0.4102    2.4549 H   0  0  0  0  0  0  0  0  0  0  0  0
    1.7780    1.2859    2.6674 H   0  0  0  0  0  0  0  0  0  0  0  0
    4.3646    0.1492    1.9378 H   0  0  0  0  0  0  0  0  0  0  0  0
    6.2101    2.1099    1.5895 H   0  0  0  0  0  0  0  0  0  0  0  0
    7.4267    1.4765    3.6046 H   0  0  0  0  0  0  0  0  0  0  0  0
    5.9799    1.5584    4.5816 H   0  0  0  0  0  0  0  0  0  0  0  0
    5.6671    4.0156    3.9124 H   0  0  0  0  0  0  0  0  0  0  0  0
    7.1139    3.9337    2.9355 H   0  0  0  0  0  0  0  0  0  0  0  0
  4 37  1  0  0  0  0
  6  7  1  0  0  0  0
  6 23  1  0  0  0  0
  6  1  2  0  0  0  0
  7 25  1  0  0  0  0
  7 26  1  0  0  0  0
  8  9  1  0  0  0  0
  8 27  1  0  0  0  0
  8 28  1  0  0  0  0
  9 22  1  0  0  0  0
  9 10  2  0  0  0  0
 10 11  1  0  0  0  0
 10 29  1  0  0  0  0
 11 30  1  0  0  0  0
 11 12  2  0  0  0  0
 12 13  1  0  0  0  0
 12 31  1  0  0  0  0
 13 32  1  0  0  0  0
 13 22  2  0  0  0  0
 14 23  1  0  0  0  0
 14 15  1  0  0  0  0
 14 16  1  0  0  0  0
 14 34  1  6  0  0  0
 15  4  1  0  0  0  0
 15 35  1  0  0  0  0
 15 36  1  0  0  0  0
 16 24  1  0  0  0  0
 16 38  1  0  0  0  0
 16 39  1  0  0  0  0
 17 24  1  0  0  0  0
 17 18  1  0  0  0  0
 17  5  2  0  0  0  0
 18 19  1  0  0  0  0
 18 20  1  0  0  0  0
 18 41  1  0  0  0  0
 19 20  1  0  0  0  0
 19 42  1  0  0  0  0
 19 43  1  0  0  0  0
 20 44  1  0  0  0  0
 20 45  1  0  0  0  0
 21  7  1  0  0  0  0
 21  8  1  0  0  0  0
 21  2  2  0  0  0  0
 21  3  2  0  0  0  0
 23 33  1  0  0  0  0
 24 40  1  0  0  0  0
M  END
>  <score>
0.44638031721115112

$$$$
Z3800211318
 OpenBabel08202115463D

 42 45  0  0  0  0  0  0  0  0999 V2000
    1.6893    0.5968    3.4444 O   0  0  0  0  0  0  0  0  0  0  0  0
   -1.4909    0.1930   -0.7703 O   0  0  0  0  0  0  0  0  0  0  0  0
    2.2185    0.9700    2.3924 C   0  0  0  0  0  0  0  0  0  0  0  0
    1.3892    1.2829    1.2011 C   0  0  0  0  0  0  0  0  0  0  0  0
    1.7446    2.3945    0.4608 C   0  0  0  0  0  0  0  0  0  0  0  0
    1.0150    2.7390   -0.6664 C   0  0  0  0  0  0  0  0  0  0  0  0
   -0.0712    1.9736   -1.0469 C   0  0  0  0  0  0  0  0  0  0  0  0
   -0.4277    0.8586   -0.3044 C   0  0  0  0  0  0  0  0  0  0  0  0
   -1.9709   -1.0025   -0.1347 C   0  0  0  0  0  0  0  0  0  0  0  0
   -3.1484   -1.5164   -0.9097 C   0  0  0  0  0  0  0  0  0  0  0  0
   -3.1700   -2.3825   -1.9054 C   0  0  0  0  0  0  0  0  0  0  0  0
   -4.4732   -2.5828   -2.5147 C   0  0  0  0  0  0  0  0  0  0  0  0
   -6.0459   -3.4657   -3.9812 C   0  0  0  0  0  0  0  0  0  0  0  0
   -7.0651   -2.7122   -3.4179 C   0  0  0  0  0  0  0  0  0  0  0  0
   -6.7748   -1.8656   -2.3668 C   0  0  0  0  0  0  0  0  0  0  0  0
   -5.4560   -1.7977   -1.9047 C   0  0  0  0  0  0  0  0  0  0  0  0
    0.2999    0.5154    0.8194 C   0  0  0  0  0  0  0  0  0  0  0  0
    4.4716    1.0993    3.4747 C   0  0  0  0  0  0  0  0  0  0  0  0
    5.8382    1.4107    2.8744 C   0  0  0  0  0  0  0  0  0  0  0  0
    5.7181    0.8829    1.4571 C   0  0  0  0  0  0  0  0  0  0  0  0
    4.2928    1.2665    1.0101 C   0  0  0  0  0  0  0  0  0  0  0  0
   -4.8165   -3.3895   -3.5359 N   0  0  0  0  0  0  0  0  0  0  0  0
    3.5560    1.1015    2.3018 N   0  0  0  0  0  0  0  0  0  0  0  0
   -4.7411   -0.8472   -0.6102 S   0  0  0  0  0  0  0  0  0  0  0  0
    2.5595    2.9726    0.7494 H   0  0  0  0  0  0  0  0  0  0  0  0
    1.2849    3.5732   -1.2258 H   0  0  0  0  0  0  0  0  0  0  0  0
   -0.6210    2.2343   -1.8903 H   0  0  0  0  0  0  0  0  0  0  0  0
   -2.2683   -0.7824    0.8692 H   0  0  0  0  0  0  0  0  0  0  0  0
   -1.1965   -1.7408   -0.1241 H   0  0  0  0  0  0  0  0  0  0  0  0
   -2.3183   -2.8837   -2.2292 H   0  0  0  0  0  0  0  0  0  0  0  0
   -6.2623   -4.1041   -4.7732 H   0  0  0  0  0  0  0  0  0  0  0  0
   -8.0362   -2.7841   -3.7830 H   0  0  0  0  0  0  0  0  0  0  0  0
   -7.5213   -1.2901   -1.9273 H   0  0  0  0  0  0  0  0  0  0  0  0
    0.0300   -0.3188    1.3788 H   0  0  0  0  0  0  0  0  0  0  0  0
    4.1864    1.8504    4.1814 H   0  0  0  0  0  0  0  0  0  0  0  0
    4.4753    0.1421    3.9528 H   0  0  0  0  0  0  0  0  0  0  0  0
    6.0283    2.4637    2.8774 H   0  0  0  0  0  0  0  0  0  0  0  0
    6.6163    0.9058    3.4078 H   0  0  0  0  0  0  0  0  0  0  0  0
    5.8450   -0.1794    1.4392 H   0  0  0  0  0  0  0  0  0  0  0  0
    6.4477    1.3405    0.8221 H   0  0  0  0  0  0  0  0  0  0  0  0
    4.2473    2.2746    0.6541 H   0  0  0  0  0  0  0  0  0  0  0  0
    3.9227    0.6043    0.2556 H   0  0  0  0  0  0  0  0  0  0  0  0
  3  4  1  0  0  0  0
  3 23  1  0  0  0  0
  3  1  2  0  0  0  0
  4 17  1  0  0  0  0
  4  5  2  0  0  0  0
  5  6  1  0  0  0  0
  5 25  1  0  0  0  0
  6 26  1  0  0  0  0
  6  7  2  0  0  0  0
  7  8  1  0  0  0  0
  7 27  1  0  0  0  0
  8  2  1  0  0  0  0
  8 17  2  0  0  0  0
  9  2  1  0  0  0  0
  9 10  1  0  0  0  0
  9 28  1  0  0  0  0
  9 29  1  0  0  0  0
 10 24  1  0  0  0  0
 10 11  2  0  0  0  0
 11 12  1  0  0  0  0
 11 30  1  0  0  0  0
 12 16  1  0  0  0  0
 12 22  2  0  0  0  0
 13 22  1  0  0  0  0
 13 31  1  0  0  0  0
 13 14  2  0  0  0  0
 14 15  1  0  0  0  0
 14 32  1  0  0  0  0
 15 33  1  0  0  0  0
 15 16  2  0  0  0  0
 16 24  1  0  0  0  0
 17 34  1  0  0  0  0
 18 23  1  0  0  0  0
 18 19  1  0  0  0  0
 18 35  1  0  0  0  0
 18 36  1  0  0  0  0
 19 20  1  0  0  0  0
 19 37  1  0  0  0  0
 19 38  1  0  0  0  0
 20 21  1  0  0  0  0
 20 39  1  0  0  0  0
 20 40  1  0  0  0  0
 21 23  1  0  0  0  0
 21 41  1  0  0  0  0
 21 42  1  0  0  0  0
M  END
>  <score>
0.44641190767288208

$$$$
Z4060578687
 OpenBabel08202115463D

 51 52  0  0  0  0  0  0  0  0999 V2000
   -7.2093   -3.7696   -3.0674 C   0  0  0  0  0  0  0  0  0  0  0  0
   -6.3386   -1.4965   -3.3017 C   0  0  0  0  0  0  0  0  0  0  0  0
   -5.3168   -0.5052   -2.8280 C   0  0  0  0  0  0  0  0  0  0  0  0
   -3.2023   -0.5759   -1.7076 C   0  0  0  0  0  0  0  0  0  0  0  0
   -2.2896   -1.3393   -0.9963 C   0  0  0  0  0  0  0  0  0  0  0  0
   -1.1313   -0.7599   -0.5137 C   0  0  0  0  0  0  0  0  0  0  0  0
   -0.8798    0.5834   -0.7456 C   0  0  0  0  0  0  0  0  0  0  0  0
    1.3598    0.4977    0.2137 C   0  0  0  0  0  0  0  0  0  0  0  0
    2.4980    1.3527    0.7030 C   0  0  0  0  0  0  0  0  0  0  0  0
    3.6331    0.5387    1.3304 C   0  0  1  0  0  0  0  0  0  0  0  0
    4.8318    1.4430    1.4559 C   0  0  0  0  0  0  0  0  0  0  0  0
    6.0694    0.6582    1.9245 C   0  0  0  0  0  0  0  0  0  0  0  0
    5.1256   -0.1175    4.0898 C   0  0  0  0  0  0  0  0  0  0  0  0
    3.7518    0.4274    3.8956 C   0  0  0  0  0  0  0  0  0  0  0  0
    3.1106   -0.0657    2.6207 C   0  0  0  0  0  0  0  0  0  0  0  0
   -1.7896    1.3446   -1.4547 C   0  0  0  0  0  0  0  0  0  0  0  0
   -1.5188    2.8098   -1.7027 C   0  0  0  0  0  0  0  0  0  0  0  0
   -2.9512    0.7634   -1.9387 C   0  0  0  0  0  0  0  0  0  0  0  0
   -6.2268   -2.7298   -2.8002 N   0  0  0  0  0  0  0  0  0  0  0  0
    0.3046    1.1733   -0.2578 N   0  0  0  0  0  0  0  0  0  0  0  0
    6.2291    0.5549    3.3864 N   0  0  0  0  0  0  0  0  0  0  0  0
   -7.2165   -1.1756   -4.1016 O   0  0  0  0  0  0  0  0  0  0  0  0
   -4.3120   -1.2567   -2.1293 O   0  0  0  0  0  0  0  0  0  0  0  0
    1.4523   -0.7268    0.1917 O   0  0  0  0  0  0  0  0  0  0  0  0
    1.7872    0.2012    2.6948 F   0  0  0  0  0  0  0  0  0  0  0  0
    3.2901   -1.3444    2.5581 F   0  0  0  0  0  0  0  0  0  0  0  0
   -8.1656   -3.4602   -2.7005 H   0  0  0  0  0  0  0  0  0  0  0  0
   -6.9144   -4.6733   -2.5762 H   0  0  0  0  0  0  0  0  0  0  0  0
   -7.2703   -3.9399   -4.1220 H   0  0  0  0  0  0  0  0  0  0  0  0
   -5.4565   -2.9417   -2.2327 H   0  0  0  0  0  0  0  0  0  0  0  0
   -5.7699    0.2065   -2.1700 H   0  0  0  0  0  0  0  0  0  0  0  0
   -4.8829    0.0053   -3.6622 H   0  0  0  0  0  0  0  0  0  0  0  0
   -2.4765   -2.3481   -0.8259 H   0  0  0  0  0  0  0  0  0  0  0  0
   -0.4486   -1.3317    0.0234 H   0  0  0  0  0  0  0  0  0  0  0  0
    0.3593    2.1517   -0.2646 H   0  0  0  0  0  0  0  0  0  0  0  0
    2.1211    2.0338    1.4372 H   0  0  0  0  0  0  0  0  0  0  0  0
    2.8914    1.9031   -0.1260 H   0  0  0  0  0  0  0  0  0  0  0  0
    3.8987   -0.2661    0.6773 H   0  0  0  0  0  0  0  0  0  0  0  0
    5.0379    1.8845    0.5032 H   0  0  0  0  0  0  0  0  0  0  0  0
    4.6160    2.2128    2.1671 H   0  0  0  0  0  0  0  0  0  0  0  0
    6.9379    1.1429    1.5299 H   0  0  0  0  0  0  0  0  0  0  0  0
    6.0025   -0.3333    1.5278 H   0  0  0  0  0  0  0  0  0  0  0  0
    7.0528    0.0556    3.5671 H   0  0  0  0  0  0  0  0  0  0  0  0
    5.3412   -0.0769    5.1371 H   0  0  0  0  0  0  0  0  0  0  0  0
    5.1142   -1.1375    3.7668 H   0  0  0  0  0  0  0  0  0  0  0  0
    3.1437    0.1284    4.7237 H   0  0  0  0  0  0  0  0  0  0  0  0
    3.8079    1.4954    3.8609 H   0  0  0  0  0  0  0  0  0  0  0  0
   -1.6837    3.0336   -2.7359 H   0  0  0  0  0  0  0  0  0  0  0  0
   -0.5039    3.0328   -1.4473 H   0  0  0  0  0  0  0  0  0  0  0  0
   -2.1768    3.4007   -1.1005 H   0  0  0  0  0  0  0  0  0  0  0  0
   -3.6340    1.3353   -2.4758 H   0  0  0  0  0  0  0  0  0  0  0  0
  1 19  1  0  0  0  0
  1 27  1  0  0  0  0
  1 28  1  0  0  0  0
  1 29  1  0  0  0  0
  2 19  1  0  0  0  0
  2  3  1  0  0  0  0
  2 22  2  0  0  0  0
  3 23  1  0  0  0  0
  3 31  1  0  0  0  0
  3 32  1  0  0  0  0
  4 23  1  0  0  0  0
  4 18  1  0  0  0  0
  4  5  2  0  0  0  0
  5  6  1  0  0  0  0
  5 33  1  0  0  0  0
  6 34  1  0  0  0  0
  6  7  2  0  0  0  0
  7 20  1  0  0  0  0
  7 16  1  0  0  0  0
  8 20  1  0  0  0  0
  8  9  1  0  0  0  0
  8 24  2  0  0  0  0
  9 10  1  0  0  0  0
  9 36  1  0  0  0  0
  9 37  1  0  0  0  0
 10 11  1  0  0  0  0
 10 15  1  0  0  0  0
 10 38  1  6  0  0  0
 11 12  1  0  0  0  0
 11 39  1  0  0  0  0
 11 40  1  0  0  0  0
 12 21  1  0  0  0  0
 12 41  1  0  0  0  0
 12 42  1  0  0  0  0
 13 21  1  0  0  0  0
 13 14  1  0  0  0  0
 13 44  1  0  0  0  0
 13 45  1  0  0  0  0
 14 15  1  0  0  0  0
 14 46  1  0  0  0  0
 14 47  1  0  0  0  0
 15 25  1  0  0  0  0
 15 26  1  0  0  0  0
 16 17  1  0  0  0  0
 16 18  2  0  0  0  0
 17 48  1  0  0  0  0
 17 49  1  0  0  0  0
 17 50  1  0  0  0  0
 18 51  1  0  0  0  0
 19 30  1  0  0  0  0
 20 35  1  0  0  0  0
 21 43  1  0  0  0  0
M  END
>  <score>
0.44642859697341919

$$$$
PV-004102844170
 OpenBabel08202115463D

 48 49  0  0  0  0  0  0  0  0999 V2000
    5.2933   -0.1953    3.7122 C   0  0  0  0  0  0  0  0  0  0  0  0
    4.5164    0.2547    2.4867 C   0  0  0  0  0  0  0  0  0  0  0  0
    4.7848   -0.5804    1.2412 C   0  0  0  0  0  0  0  0  0  0  0  0
    3.2657    2.5196    1.3954 C   0  0  0  0  0  0  0  0  0  0  0  0
    2.4806    1.4323    0.6725 C   0  0  0  0  0  0  0  0  0  0  0  0
    0.3548    0.8220   -0.3919 C   0  0  1  0  0  0  0  0  0  0  0  0
   -1.0006    0.6675    0.3174 C   0  0  0  0  0  0  0  0  0  0  0  0
   -2.0930    0.7271   -0.7387 C   0  0  1  0  0  0  0  0  0  0  0  0
   -3.9833   -0.6561   -1.4835 C   0  0  0  0  0  0  0  0  0  0  0  0
   -4.7106   -1.9413   -1.2409 C   0  0  0  0  0  0  0  0  0  0  0  0
   -6.4946   -3.0604   -2.1249 C   0  0  0  0  0  0  0  0  0  0  0  0
   -5.2514   -3.8199   -2.4139 C   0  0  0  0  0  0  0  0  0  0  0  0
   -1.3668    0.7454   -2.0974 C   0  0  0  0  0  0  0  0  0  0  0  0
   -0.0266    1.3873   -1.7489 C   0  0  1  0  0  0  0  0  0  0  0  0
    4.7561    1.9904    2.2004 S   0  0  0  0  0  0  0  0  0  0  0  0
    5.8499    2.1573    1.2890 O   0  0  0  0  0  0  0  0  0  0  0  0
    4.8497    2.6578    3.4678 O   0  0  0  0  0  0  0  0  0  0  0  0
    2.9863    0.3389    0.4224 O   0  0  0  0  0  0  0  0  0  0  0  0
   -4.3191    0.1154   -2.3811 O   0  0  0  0  0  0  0  0  0  0  0  0
   -6.0761   -1.8091   -1.6032 O   0  0  0  0  0  0  0  0  0  0  0  0
   -4.1794   -2.9694   -2.0627 O   0  0  0  0  0  0  0  0  0  0  0  0
   -0.1574    2.8094   -1.6785 O   0  0  0  0  0  0  0  0  0  0  0  0
    1.2265    1.7477    0.3367 N   0  0  0  0  0  0  0  0  0  0  0  0
   -2.9600   -0.4482   -0.6410 N   0  0  0  0  0  0  0  0  0  0  0  0
    6.0939    0.4897    3.8989 H   0  0  0  0  0  0  0  0  0  0  0  0
    5.6933   -1.1729    3.5414 H   0  0  0  0  0  0  0  0  0  0  0  0
    4.6401   -0.2196    4.5593 H   0  0  0  0  0  0  0  0  0  0  0  0
    3.4754    0.1606    2.7156 H   0  0  0  0  0  0  0  0  0  0  0  0
    4.6244    0.0178    0.3686 H   0  0  0  0  0  0  0  0  0  0  0  0
    4.1213   -1.4196    1.2249 H   0  0  0  0  0  0  0  0  0  0  0  0
    5.7974   -0.9259    1.2552 H   0  0  0  0  0  0  0  0  0  0  0  0
    3.5286    3.2674    0.6767 H   0  0  0  0  0  0  0  0  0  0  0  0
    2.6256    2.9477    2.1384 H   0  0  0  0  0  0  0  0  0  0  0  0
    0.8775    2.6288    0.5863 H   0  0  0  0  0  0  0  0  0  0  0  0
    0.8443   -0.1239   -0.4942 H   0  0  0  0  0  0  0  0  0  0  0  0
   -1.1338    1.4611    1.0226 H   0  0  0  0  0  0  0  0  0  0  0  0
   -1.0388   -0.2729    0.8264 H   0  0  0  0  0  0  0  0  0  0  0  0
   -2.6790    1.6142   -0.6182 H   0  0  0  0  0  0  0  0  0  0  0  0
   -2.7870   -1.1062    0.0644 H   0  0  0  0  0  0  0  0  0  0  0  0
   -4.6254   -2.2106   -0.2089 H   0  0  0  0  0  0  0  0  0  0  0  0
   -7.0903   -3.5825   -1.4055 H   0  0  0  0  0  0  0  0  0  0  0  0
   -7.0605   -2.9186   -3.0218 H   0  0  0  0  0  0  0  0  0  0  0  0
   -5.2202   -4.7161   -1.8303 H   0  0  0  0  0  0  0  0  0  0  0  0
   -5.2021   -4.0686   -3.4534 H   0  0  0  0  0  0  0  0  0  0  0  0
   -1.9020    1.3333   -2.8135 H   0  0  0  0  0  0  0  0  0  0  0  0
   -1.2332   -0.2459   -2.4773 H   0  0  0  0  0  0  0  0  0  0  0  0
    0.7113    1.1322   -2.4806 H   0  0  0  0  0  0  0  0  0  0  0  0
   -0.8061    3.0389   -1.0091 H   0  0  0  0  0  0  0  0  0  0  0  0
  1  2  1  0  0  0  0
  1 25  1  0  0  0  0
  1 26  1  0  0  0  0
  1 27  1  0  0  0  0
  2  3  1  0  0  0  0
  2 28  1  0  0  0  0
  3 29  1  0  0  0  0
  3 30  1  0  0  0  0
  3 31  1  0  0  0  0
  4  5  1  0  0  0  0
  4 32  1  0  0  0  0
  4 33  1  0  0  0  0
  5 23  1  0  0  0  0
  5 18  2  0  0  0  0
  6 23  1  0  0  0  0
  6  7  1  0  0  0  0
  6 14  1  0  0  0  0
  6 35  1  6  0  0  0
  7  8  1  0  0  0  0
  7 36  1  0  0  0  0
  7 37  1  0  0  0  0
  8 24  1  0  0  0  0
  8 13  1  0  0  0  0
  8 38  1  1  0  0  0
  9 24  1  0  0  0  0
  9 10  1  0  0  0  0
  9 19  2  0  0  0  0
 10 20  1  0  0  0  0
 10 21  1  0  0  0  0
 10 40  1  0  0  0  0
 11 20  1  0  0  0  0
 11 12  1  0  0  0  0
 11 41  1  0  0  0  0
 11 42  1  0  0  0  0
 12 21  1  0  0  0  0
 12 43  1  0  0  0  0
 12 44  1  0  0  0  0
 13 14  1  0  0  0  0
 13 45  1  0  0  0  0
 13 46  1  0  0  0  0
 14 22  1  0  0  0  0
 14 47  1  6  0  0  0
 15  2  1  0  0  0  0
 15  4  1  0  0  0  0
 15 16  2  0  0  0  0
 15 17  2  0  0  0  0
 22 48  1  0  0  0  0
 23 34  1  0  0  0  0
 24 39  1  0  0  0  0
M  END
>  <score>
0.44644463062286377

$$$$
PV-003681023391
 OpenBabel08202115463D

 61 63  0  0  0  0  0  0  0  0999 V2000
   -7.4880   -4.1042   -3.4126 C   0  0  0  0  0  0  0  0  0  0  0  0
   -6.5456   -3.6428   -2.3078 C   0  0  0  0  0  0  0  0  0  0  0  0
   -5.7497   -2.4050   -2.6744 C   0  0  0  0  0  0  0  0  0  0  0  0
   -4.6971   -2.0376   -1.6413 C   0  0  0  0  0  0  0  0  0  0  0  0
   -3.8969   -0.7710   -1.8753 C   0  0  0  0  0  0  0  0  0  0  0  0
   -2.7074   -1.3214    0.2276 C   0  0  0  0  0  0  0  0  0  0  0  0
   -2.0755    0.6497   -1.1692 C   0  0  0  0  0  0  0  0  0  0  0  0
   -2.1104    1.5890    0.0297 C   0  0  0  0  0  0  0  0  0  0  0  0
   -1.0787    2.6999   -0.1042 C   0  0  0  0  0  0  0  0  0  0  0  0
    1.3150    2.3947    0.4411 C   0  0  0  0  0  0  0  0  0  0  0  0
    2.6362    1.8583   -0.0410 C   0  0  0  0  0  0  0  0  0  0  0  0
    3.7326    1.9450    1.0082 C   0  0  0  0  0  0  0  0  0  0  0  0
    3.2648    1.2399    2.2828 C   0  0  0  0  0  0  0  0  0  0  0  0
    4.3688    1.2308    3.3267 C   0  0  0  0  0  0  0  0  0  0  0  0
    5.6418    0.6078    2.7819 C   0  0  0  0  0  0  0  0  0  0  0  0
    6.1174    1.2666    1.4964 C   0  0  0  0  0  0  0  0  0  0  0  0
    4.9944    1.2931    0.4664 C   0  0  0  0  0  0  0  0  0  0  0  0
    6.5942    0.1092    3.8576 C   0  0  0  0  0  0  0  0  0  0  0  0
    5.7859   -0.8689    3.0155 C   0  0  0  0  0  0  0  0  0  0  0  0
    0.3310    1.2507   -1.5166 C   0  0  0  0  0  0  0  0  0  0  0  0
   -0.6705    0.1178   -1.3823 C   0  0  0  0  0  0  0  0  0  0  0  0
   -4.0829   -0.0732   -2.8714 O   0  0  0  0  0  0  0  0  0  0  0  0
    1.2290    3.0318    1.4901 O   0  0  0  0  0  0  0  0  0  0  0  0
   -2.9846   -0.4719   -0.9298 N   0  0  0  0  0  0  0  0  0  0  0  0
    0.2523    2.1304   -0.3470 N   0  0  0  0  0  0  0  0  0  0  0  0
   -6.9177   -4.5088   -4.2226 H   0  0  0  0  0  0  0  0  0  0  0  0
   -8.0622   -3.2717   -3.7620 H   0  0  0  0  0  0  0  0  0  0  0  0
   -8.1457   -4.8560   -3.0292 H   0  0  0  0  0  0  0  0  0  0  0  0
   -5.8600   -4.4359   -2.0936 H   0  0  0  0  0  0  0  0  0  0  0  0
   -7.1260   -3.4269   -1.4352 H   0  0  0  0  0  0  0  0  0  0  0  0
   -6.4276   -1.5833   -2.7750 H   0  0  0  0  0  0  0  0  0  0  0  0
   -5.2604   -2.5809   -3.6095 H   0  0  0  0  0  0  0  0  0  0  0  0
   -4.0026   -2.8499   -1.5890 H   0  0  0  0  0  0  0  0  0  0  0  0
   -5.1952   -1.9323   -0.7002 H   0  0  0  0  0  0  0  0  0  0  0  0
   -3.5766   -1.3723    0.8497 H   0  0  0  0  0  0  0  0  0  0  0  0
   -1.8932   -0.9087    0.7859 H   0  0  0  0  0  0  0  0  0  0  0  0
   -2.4497   -2.3050   -0.1058 H   0  0  0  0  0  0  0  0  0  0  0  0
   -2.3874    1.1820   -2.0434 H   0  0  0  0  0  0  0  0  0  0  0  0
   -3.0846    2.0257    0.1012 H   0  0  0  0  0  0  0  0  0  0  0  0
   -1.9044    1.0281    0.9173 H   0  0  0  0  0  0  0  0  0  0  0  0
   -1.0580    3.2734    0.7988 H   0  0  0  0  0  0  0  0  0  0  0  0
   -1.3465    3.3337   -0.9238 H   0  0  0  0  0  0  0  0  0  0  0  0
    2.9401    2.4216   -0.8985 H   0  0  0  0  0  0  0  0  0  0  0  0
    2.5076    0.8320   -0.3151 H   0  0  0  0  0  0  0  0  0  0  0  0
    3.9351    2.9722    1.2291 H   0  0  0  0  0  0  0  0  0  0  0  0
    2.4133    1.7545    2.6766 H   0  0  0  0  0  0  0  0  0  0  0  0
    2.9955    0.2314    2.0477 H   0  0  0  0  0  0  0  0  0  0  0  0
    4.5742    2.2377    3.6247 H   0  0  0  0  0  0  0  0  0  0  0  0
    4.0410    0.6670    4.1750 H   0  0  0  0  0  0  0  0  0  0  0  0
    6.9444    0.7139    1.1020 H   0  0  0  0  0  0  0  0  0  0  0  0
    6.4259    2.2692    1.7073 H   0  0  0  0  0  0  0  0  0  0  0  0
    5.3254    1.8426   -0.3899 H   0  0  0  0  0  0  0  0  0  0  0  0
    4.7666    0.2878    0.1794 H   0  0  0  0  0  0  0  0  0  0  0  0
    6.3579    0.2505    4.8916 H   0  0  0  0  0  0  0  0  0  0  0  0
    7.6519    0.1913    3.7185 H   0  0  0  0  0  0  0  0  0  0  0  0
    6.2777   -1.4791    2.2870 H   0  0  0  0  0  0  0  0  0  0  0  0
    4.9836   -1.4199    3.4600 H   0  0  0  0  0  0  0  0  0  0  0  0
    1.3182    0.8442   -1.5884 H   0  0  0  0  0  0  0  0  0  0  0  0
    0.1118    1.8145   -2.3993 H   0  0  0  0  0  0  0  0  0  0  0  0
   -0.3977   -0.4918   -0.5463 H   0  0  0  0  0  0  0  0  0  0  0  0
   -0.6523   -0.4716   -2.2752 H   0  0  0  0  0  0  0  0  0  0  0  0
  1  2  1  0  0  0  0
  1 26  1  0  0  0  0
  1 27  1  0  0  0  0
  1 28  1  0  0  0  0
  2  3  1  0  0  0  0
  2 29  1  0  0  0  0
  2 30  1  0  0  0  0
  3  4  1  0  0  0  0
  3 31  1  0  0  0  0
  3 32  1  0  0  0  0
  4  5  1  0  0  0  0
  4 33  1  0  0  0  0
  4 34  1  0  0  0  0
  5 24  1  0  0  0  0
  5 22  2  0  0  0  0
  6 24  1  0  0  0  0
  6 35  1  0  0  0  0
  6 36  1  0  0  0  0
  6 37  1  0  0  0  0
  7 24  1  0  0  0  0
  7  8  1  0  0  0  0
  7 21  1  0  0  0  0
  7 38  1  0  0  0  0
  8  9  1  0  0  0  0
  8 39  1  0  0  0  0
  8 40  1  0  0  0  0
  9 25  1  0  0  0  0
  9 41  1  0  0  0  0
  9 42  1  0  0  0  0
 10 25  1  0  0  0  0
 10 11  1  0  0  0  0
 10 23  2  0  0  0  0
 11 12  1  0  0  0  0
 11 43  1  0  0  0  0
 11 44  1  0  0  0  0
 12 13  1  0  0  0  0
 12 17  1  0  0  0  0
 12 45  1  0  0  0  0
 13 14  1  0  0  0  0
 13 46  1  0  0  0  0
 13 47  1  0  0  0  0
 14 15  1  0  0  0  0
 14 48  1  0  0  0  0
 14 49  1  0  0  0  0
 15 16  1  0  0  0  0
 15 18  1  0  0  0  0
 15 19  1  0  0  0  0
 16 17  1  0  0  0  0
 16 50  1  0  0  0  0
 16 51  1  0  0  0  0
 17 52  1  0  0  0  0
 17 53  1  0  0  0  0
 18 19  1  0  0  0  0
 18 54  1  0  0  0  0
 18 55  1  0  0  0  0
 19 56  1  0  0  0  0
 19 57  1  0  0  0  0
 20 25  1  0  0  0  0
 20 21  1  0  0  0  0
 20 58  1  0  0  0  0
 20 59  1  0  0  0  0
 21 60  1  0  0  0  0
 21 61  1  0  0  0  0
M  END
>  <score>
0.44670331478118896

$$$$
PV-004142340264
 OpenBabel08202115463D

 43 45  0  0  0  0  0  0  0  0999 V2000
    6.7586    0.6144    3.3455 C   0  0  0  0  0  0  0  0  0  0  0  0
    5.3300   -1.2139    2.5057 C   0  0  0  0  0  0  0  0  0  0  0  0
    4.6843    1.1173    2.1318 C   0  0  0  0  0  0  0  0  0  0  0  0
    2.9835    1.8994    1.2051 C   0  0  0  0  0  0  0  0  0  0  0  0
    1.6595    2.2120    0.5383 C   0  0  0  0  0  0  0  0  0  0  0  0
    0.9779    0.9098    0.1854 C   0  0  0  0  0  0  0  0  0  0  0  0
   -1.2335    0.0643   -0.6456 C   0  0  0  0  0  0  0  0  0  0  0  0
   -1.4321   -2.2124   -0.8560 C   0  0  0  0  0  0  0  0  0  0  0  0
   -2.6492   -2.1440   -1.4543 C   0  0  0  0  0  0  0  0  0  0  0  0
   -3.2402   -0.8779   -1.6683 C   0  0  0  0  0  0  0  0  0  0  0  0
   -4.5051   -0.6967   -2.2823 C   0  0  0  0  0  0  0  0  0  0  0  0
   -5.0062    0.5622   -2.4595 C   0  0  0  0  0  0  0  0  0  0  0  0
   -4.2900    1.6960   -2.0254 C   0  0  0  0  0  0  0  0  0  0  0  0
   -3.0733    1.5572   -1.4363 C   0  0  0  0  0  0  0  0  0  0  0  0
   -2.5137    0.2669   -1.2481 C   0  0  0  0  0  0  0  0  0  0  0  0
    5.5314    0.2198    2.6669 N   0  0  0  0  0  0  0  0  0  0  0  0
    4.9510    2.3951    2.0783 N   0  0  0  0  0  0  0  0  0  0  0  0
   -0.4037    1.0968   -0.2222 N   0  0  0  0  0  0  0  0  0  0  0  0
   -0.7142   -1.1316   -0.4326 N   0  0  0  0  0  0  0  0  0  0  0  0
   -6.1824   -2.6857   -1.4596 N   0  0  0  0  0  0  0  0  0  0  0  0
    3.4633    0.7591    1.5955 N   0  0  0  0  0  0  0  0  0  0  0  0
    3.8125    2.9320    1.4448 O   0  0  0  0  0  0  0  0  0  0  0  0
   -4.5314   -3.1430   -3.1873 O   0  0  0  0  0  0  0  0  0  0  0  0
   -6.4336   -1.6610   -3.7406 O   0  0  0  0  0  0  0  0  0  0  0  0
   -5.4317   -2.0954   -2.8174 S   0  0  0  0  0  0  0  0  0  0  0  0
    7.0968   -0.1880    3.9673 H   0  0  0  0  0  0  0  0  0  0  0  0
    6.5705    1.4779    3.9487 H   0  0  0  0  0  0  0  0  0  0  0  0
    7.5100    0.8432    2.6188 H   0  0  0  0  0  0  0  0  0  0  0  0
    6.2765   -1.7124    2.5279 H   0  0  0  0  0  0  0  0  0  0  0  0
    4.8495   -1.4032    1.5686 H   0  0  0  0  0  0  0  0  0  0  0  0
    4.7159   -1.5794    3.3021 H   0  0  0  0  0  0  0  0  0  0  0  0
    1.8296    2.7822   -0.3509 H   0  0  0  0  0  0  0  0  0  0  0  0
    1.0416    2.7719    1.2089 H   0  0  0  0  0  0  0  0  0  0  0  0
    0.9990    0.2687    1.0418 H   0  0  0  0  0  0  0  0  0  0  0  0
    1.5133    0.4495   -0.6186 H   0  0  0  0  0  0  0  0  0  0  0  0
   -0.7729    2.0042   -0.1974 H   0  0  0  0  0  0  0  0  0  0  0  0
   -1.0177   -3.1550   -0.7101 H   0  0  0  0  0  0  0  0  0  0  0  0
   -3.1399   -3.0115   -1.7512 H   0  0  0  0  0  0  0  0  0  0  0  0
   -5.6529   -2.9158   -0.6677 H   0  0  0  0  0  0  0  0  0  0  0  0
   -7.1552   -2.8042   -1.4499 H   0  0  0  0  0  0  0  0  0  0  0  0
   -5.9297    0.6856   -2.9216 H   0  0  0  0  0  0  0  0  0  0  0  0
   -4.6952    2.6448   -2.1568 H   0  0  0  0  0  0  0  0  0  0  0  0
   -2.5505    2.3996   -1.1222 H   0  0  0  0  0  0  0  0  0  0  0  0
  1 16  1  0  0  0  0
  1 26  1  0  0  0  0
  1 27  1  0  0  0  0
  1 28  1  0  0  0  0
  2 16  1  0  0  0  0
  2 29  1  0  0  0  0
  2 30  1  0  0  0  0
  2 31  1  0  0  0  0
  3 16  1  0  0  0  0
  3 21  1  0  0  0  0
  3 17  2  0  0  0  0
  4 22  1  0  0  0  0
  4  5  1  0  0  0  0
  4 21  2  0  0  0  0
  5  6  1  0  0  0  0
  5 32  1  0  0  0  0
  5 33  1  0  0  0  0
  6 18  1  0  0  0  0
  6 34  1  0  0  0  0
  6 35  1  0  0  0  0
  7 18  1  0  0  0  0
  7 15  1  0  0  0  0
  7 19  2  0  0  0  0
  8 19  1  0  0  0  0
  8 37  1  0  0  0  0
  8  9  2  0  0  0  0
  9 10  1  0  0  0  0
  9 38  1  0  0  0  0
 10 15  1  0  0  0  0
 10 11  2  0  0  0  0
 11 12  1  0  0  0  0
 12 41  1  0  0  0  0
 12 13  2  0  0  0  0
 13 14  1  0  0  0  0
 13 42  1  0  0  0  0
 14 43  1  0  0  0  0
 14 15  2  0  0  0  0
 17 22  1  0  0  0  0
 18 36  1  0  0  0  0
 20 39  1  0  0  0  0
 20 40  1  0  0  0  0
 25 11  1  0  0  0  0
 25 20  1  0  0  0  0
 25 23  2  0  0  0  0
 25 24  2  0  0  0  0
M  END
>  <score>
0.44675564765930176

$$$$
PV-003944251398
 OpenBabel08202115463D

 55 57  0  0  0  0  0  0  0  0999 V2000
   -8.2550   -2.7834   -4.3389 C   0  0  0  0  0  0  0  0  0  0  0  0
   -7.0452   -3.6323   -3.9837 C   0  0  0  0  0  0  0  0  0  0  0  0
   -6.0840   -3.0092   -3.0070 C   0  0  0  0  0  0  0  0  0  0  0  0
   -4.6107   -1.6980   -2.0442 C   0  0  0  0  0  0  0  0  0  0  0  0
   -3.5969   -0.7105   -1.5208 C   0  0  0  0  0  0  0  0  0  0  0  0
   -2.2577   -1.3701   -1.2067 C   0  0  0  0  0  0  0  0  0  0  0  0
   -1.4738    0.8779   -0.4754 C   0  0  0  0  0  0  0  0  0  0  0  0
   -1.0458   -0.1785    0.5056 C   0  0  2  0  0  0  0  0  0  0  0  0
   -0.5456    0.3101    1.8342 C   0  0  0  0  0  0  0  0  0  0  0  0
    0.4335    0.0007    0.7431 C   0  0  1  0  0  0  0  0  0  0  0  0
    2.4476    1.3860    0.6765 C   0  0  0  0  0  0  0  0  0  0  0  0
    3.9464    1.5113    0.9295 C   0  0  2  0  0  0  0  0  0  0  0  0
    4.6373    0.1504    1.1176 C   0  0  0  0  0  0  0  0  0  0  0  0
    4.1220    2.3478    2.1726 C   0  0  0  0  0  0  0  0  0  0  0  0
    5.5601    2.5838    2.6047 C   0  0  0  0  0  0  0  0  0  0  0  0
    6.0385    1.4817    3.5358 C   0  0  0  0  0  0  0  0  0  0  0  0
    5.7294    3.9583    3.2311 C   0  0  0  0  0  0  0  0  0  0  0  0
    0.0110   -1.0378   -0.2788 C   0  0  0  0  0  0  0  0  0  0  0  0
   -5.2921   -1.8458   -3.1937 C   0  0  0  0  0  0  0  0  0  0  0  0
   -5.8892   -3.5326   -1.8181 N   0  0  0  0  0  0  0  0  0  0  0  0
   -1.3078   -0.5736   -0.6916 N   0  0  0  0  0  0  0  0  0  0  0  0
    1.8526    0.2270    0.9726 N   0  0  0  0  0  0  0  0  0  0  0  0
   -4.9469   -2.6928   -1.1856 O   0  0  0  0  0  0  0  0  0  0  0  0
   -2.0480   -2.5486   -1.4913 O   0  0  0  0  0  0  0  0  0  0  0  0
    1.8585    2.3607    0.2111 O   0  0  0  0  0  0  0  0  0  0  0  0
    4.5576    2.1178   -0.1945 O   0  0  0  0  0  0  0  0  0  0  0  0
   -8.8729   -2.6625   -3.4738 H   0  0  0  0  0  0  0  0  0  0  0  0
   -8.8149   -3.2667   -5.1121 H   0  0  0  0  0  0  0  0  0  0  0  0
   -7.9287   -1.8235   -4.6809 H   0  0  0  0  0  0  0  0  0  0  0  0
   -6.5102   -3.8389   -4.8870 H   0  0  0  0  0  0  0  0  0  0  0  0
   -7.3983   -4.5492   -3.5600 H   0  0  0  0  0  0  0  0  0  0  0  0
   -3.9797   -0.2656   -0.6261 H   0  0  0  0  0  0  0  0  0  0  0  0
   -3.4422    0.0482   -2.2592 H   0  0  0  0  0  0  0  0  0  0  0  0
   -1.2419    1.4254   -1.3650 H   0  0  0  0  0  0  0  0  0  0  0  0
   -2.4723    1.1060   -0.1657 H   0  0  0  0  0  0  0  0  0  0  0  0
   -1.4549   -1.1946    0.4206 H   0  0  0  0  0  0  0  0  0  0  0  0
   -1.3888   -0.3295    1.9919 H   0  0  0  0  0  0  0  0  0  0  0  0
   -0.1964    0.6793    2.7758 H   0  0  0  0  0  0  0  0  0  0  0  0
    2.3906   -0.4960    1.3578 H   0  0  0  0  0  0  0  0  0  0  0  0
    4.1506   -0.3920    1.9011 H   0  0  0  0  0  0  0  0  0  0  0  0
    5.6642    0.3046    1.3756 H   0  0  0  0  0  0  0  0  0  0  0  0
    4.5778   -0.4084    0.2070 H   0  0  0  0  0  0  0  0  0  0  0  0
    5.5120    2.0503   -0.1157 H   0  0  0  0  0  0  0  0  0  0  0  0
    3.6132    1.8561    2.9753 H   0  0  0  0  0  0  0  0  0  0  0  0
    3.6707    3.3015    1.9946 H   0  0  0  0  0  0  0  0  0  0  0  0
    6.1704    2.5519    1.7264 H   0  0  0  0  0  0  0  0  0  0  0  0
    5.4459    1.4845    4.4267 H   0  0  0  0  0  0  0  0  0  0  0  0
    7.0643    1.6497    3.7895 H   0  0  0  0  0  0  0  0  0  0  0  0
    5.9420    0.5349    3.0466 H   0  0  0  0  0  0  0  0  0  0  0  0
    5.4781    4.7112    2.5135 H   0  0  0  0  0  0  0  0  0  0  0  0
    6.7456    4.0861    3.5409 H   0  0  0  0  0  0  0  0  0  0  0  0
    5.0837    4.0452    4.0799 H   0  0  0  0  0  0  0  0  0  0  0  0
   -0.0446   -2.0110    0.1625 H   0  0  0  0  0  0  0  0  0  0  0  0
    0.6878   -1.0595   -1.1073 H   0  0  0  0  0  0  0  0  0  0  0  0
   -5.2484   -1.2391   -4.0373 H   0  0  0  0  0  0  0  0  0  0  0  0
  1  2  1  0  0  0  0
  1 27  1  0  0  0  0
  1 28  1  0  0  0  0
  1 29  1  0  0  0  0
  2  3  1  0  0  0  0
  2 30  1  0  0  0  0
  2 31  1  0  0  0  0
  3 19  1  0  0  0  0
  3 20  2  0  0  0  0
  4 23  1  0  0  0  0
  4  5  1  0  0  0  0
  4 19  2  0  0  0  0
  5  6  1  0  0  0  0
  5 32  1  0  0  0  0
  5 33  1  0  0  0  0
  6 21  1  0  0  0  0
  6 24  2  0  0  0  0
  7 21  1  0  0  0  0
  7  8  1  0  0  0  0
  7 34  1  0  0  0  0
  7 35  1  0  0  0  0
  8  9  1  0  0  0  0
  8 10  1  0  0  0  0
  8 36  1  6  0  0  0
  9 10  1  0  0  0  0
  9 37  1  0  0  0  0
  9 38  1  0  0  0  0
 10 22  1  6  0  0  0
 10 18  1  0  0  0  0
 11 22  1  0  0  0  0
 11 25  2  0  0  0  0
 12 11  1  6  0  0  0
 12 13  1  0  0  0  0
 12 26  1  0  0  0  0
 12 14  1  0  0  0  0
 13 40  1  0  0  0  0
 13 41  1  0  0  0  0
 13 42  1  0  0  0  0
 14 15  1  0  0  0  0
 14 44  1  0  0  0  0
 14 45  1  0  0  0  0
 15 16  1  0  0  0  0
 15 17  1  0  0  0  0
 15 46  1  0  0  0  0
 16 47  1  0  0  0  0
 16 48  1  0  0  0  0
 16 49  1  0  0  0  0
 17 50  1  0  0  0  0
 17 51  1  0  0  0  0
 17 52  1  0  0  0  0
 18 21  1  0  0  0  0
 18 53  1  0  0  0  0
 18 54  1  0  0  0  0
 19 55  1  0  0  0  0
 20 23  1  0  0  0  0
 22 39  1  0  0  0  0
 26 43  1  0  0  0  0
M  END
>  <score>
0.44686263799667358

$$$$
PV-004090173516
 OpenBabel08202115463D

 51 54  0  0  0  0  0  0  0  0999 V2000
   -5.4426   -4.7438   -4.5178 N   0  0  0  0  0  0  0  0  0  0  0  0
   -3.6559   -4.0837   -3.1374 N   0  0  0  0  0  0  0  0  0  0  0  0
   -3.1231   -0.1130   -1.3295 N   0  0  0  0  0  0  0  0  0  0  0  0
    2.3820    1.7721    1.2643 N   0  0  0  0  0  0  0  0  0  0  0  0
   -4.8406   -3.8988   -3.6483 C   0  0  0  0  0  0  0  0  0  0  0  0
   -3.3321   -3.0501   -2.2986 C   0  0  0  0  0  0  0  0  0  0  0  0
   -4.2711   -2.0732   -2.1651 C   0  0  0  0  0  0  0  0  0  0  0  0
   -4.2753   -0.8160   -1.3557 C   0  0  0  0  0  0  0  0  0  0  0  0
   -2.8593    0.9772   -0.3809 C   0  0  0  0  0  0  0  0  0  0  0  0
   -1.6490    0.6139    0.4823 C   0  0  0  0  0  0  0  0  0  0  0  0
   -0.4658    0.3732   -0.4570 C   0  0  0  0  0  0  0  0  0  0  0  0
   -0.0567    1.6569   -1.1845 C   0  0  0  0  0  0  0  0  0  0  0  0
    0.3966    2.4934    0.0152 C   0  0  0  0  0  0  0  0  0  0  0  0
    0.9794    1.4830    1.0055 C   0  0  1  0  0  0  0  0  0  0  0  0
    2.9285    1.6293    2.4751 C   0  0  0  0  0  0  0  0  0  0  0  0
    4.4055    1.9068    2.5627 C   0  0  0  0  0  0  0  0  0  0  0  0
    5.0657    1.2488    3.7673 C   0  0  0  0  0  0  0  0  0  0  0  0
    6.4741    0.7438    3.7449 C   0  0  0  0  0  0  0  0  0  0  0  0
    5.3351   -0.2263    3.7844 C   0  0  0  0  0  0  0  0  0  0  0  0
    0.8286    0.1217    0.3208 C   0  0  0  0  0  0  0  0  0  0  0  0
   -0.7658   -0.7607   -1.4390 C   0  0  0  0  0  0  0  0  0  0  0  0
   -2.0020   -0.3583   -2.2464 C   0  0  0  0  0  0  0  0  0  0  0  0
   -5.2809   -0.4602   -0.7558 O   0  0  0  0  0  0  0  0  0  0  0  0
    2.2832    1.2939    3.4647 O   0  0  0  0  0  0  0  0  0  0  0  0
   -5.6351   -2.4531   -3.1325 S   0  0  0  0  0  0  0  0  0  0  0  0
   -4.9804   -5.5568   -4.8107 H   0  0  0  0  0  0  0  0  0  0  0  0
   -6.3408   -4.5425   -4.8544 H   0  0  0  0  0  0  0  0  0  0  0  0
   -2.4235   -3.0138   -1.7939 H   0  0  0  0  0  0  0  0  0  0  0  0
   -2.6559    1.8788   -0.9201 H   0  0  0  0  0  0  0  0  0  0  0  0
   -3.7148    1.1209    0.2455 H   0  0  0  0  0  0  0  0  0  0  0  0
   -1.4249    1.4171    1.1527 H   0  0  0  0  0  0  0  0  0  0  0  0
   -1.8549   -0.2732    1.0441 H   0  0  0  0  0  0  0  0  0  0  0  0
    0.7414    1.4864   -1.8764 H   0  0  0  0  0  0  0  0  0  0  0  0
   -0.8824    2.1066   -1.6953 H   0  0  0  0  0  0  0  0  0  0  0  0
   -0.4344    3.0089    0.4495 H   0  0  0  0  0  0  0  0  0  0  0  0
    1.1415    3.2022   -0.2807 H   0  0  0  0  0  0  0  0  0  0  0  0
    0.4349    1.5026    1.9264 H   0  0  0  0  0  0  0  0  0  0  0  0
    2.9452    2.0823    0.5247 H   0  0  0  0  0  0  0  0  0  0  0  0
    4.5497    2.9648    2.6309 H   0  0  0  0  0  0  0  0  0  0  0  0
    4.8744    1.5389    1.6741 H   0  0  0  0  0  0  0  0  0  0  0  0
    4.7547    1.6522    4.7083 H   0  0  0  0  0  0  0  0  0  0  0  0
    7.1002    0.8682    4.6037 H   0  0  0  0  0  0  0  0  0  0  0  0
    7.0627    0.8411    2.8566 H   0  0  0  0  0  0  0  0  0  0  0  0
    5.1092   -0.8214    2.9243 H   0  0  0  0  0  0  0  0  0  0  0  0
    5.1467   -0.7943    4.6713 H   0  0  0  0  0  0  0  0  0  0  0  0
    0.7202   -0.6721    1.0301 H   0  0  0  0  0  0  0  0  0  0  0  0
    1.6506   -0.0909   -0.3303 H   0  0  0  0  0  0  0  0  0  0  0  0
    0.0671   -0.9052   -2.0949 H   0  0  0  0  0  0  0  0  0  0  0  0
   -0.9593   -1.6661   -0.9026 H   0  0  0  0  0  0  0  0  0  0  0  0
   -1.7922    0.5328   -2.8004 H   0  0  0  0  0  0  0  0  0  0  0  0
   -2.2594   -1.1468   -2.9223 H   0  0  0  0  0  0  0  0  0  0  0  0
  1 26  1  0  0  0  0
  1 27  1  0  0  0  0
  4 38  1  0  0  0  0
  5  1  1  0  0  0  0
  5 25  1  0  0  0  0
  5  2  2  0  0  0  0
  6  2  1  0  0  0  0
  6 28  1  0  0  0  0
  6  7  2  0  0  0  0
  7  8  1  0  0  0  0
  7 25  1  0  0  0  0
  8  3  1  0  0  0  0
  8 23  2  0  0  0  0
  9  3  1  0  0  0  0
  9 10  1  0  0  0  0
  9 29  1  0  0  0  0
  9 30  1  0  0  0  0
 10 11  1  0  0  0  0
 10 31  1  0  0  0  0
 10 32  1  0  0  0  0
 11 12  1  0  0  0  0
 11 20  1  0  0  0  0
 11 21  1  0  0  0  0
 12 13  1  0  0  0  0
 12 33  1  0  0  0  0
 12 34  1  0  0  0  0
 13 14  1  0  0  0  0
 13 35  1  0  0  0  0
 13 36  1  0  0  0  0
 14  4  1  0  0  0  0
 14 20  1  0  0  0  0
 14 37  1  1  0  0  0
 15  4  1  0  0  0  0
 15 16  1  0  0  0  0
 15 24  2  0  0  0  0
 16 17  1  0  0  0  0
 16 39  1  0  0  0  0
 16 40  1  0  0  0  0
 17 18  1  0  0  0  0
 17 19  1  0  0  0  0
 17 41  1  0  0  0  0
 18 19  1  0  0  0  0
 18 42  1  0  0  0  0
 18 43  1  0  0  0  0
 19 44  1  0  0  0  0
 19 45  1  0  0  0  0
 20 46  1  0  0  0  0
 20 47  1  0  0  0  0
 21 22  1  0  0  0  0
 21 48  1  0  0  0  0
 21 49  1  0  0  0  0
 22  3  1  0  0  0  0
 22 50  1  0  0  0  0
 22 51  1  0  0  0  0
M  END
>  <score>
0.44700056314468384

$$$$
Z3844399897
 OpenBabel08202115463D

 44 45  0  0  0  0  0  0  0  0999 V2000
   -5.7474   -2.6242   -4.1190 C   0  0  0  0  0  0  0  0  0  0  0  0
   -5.5567   -2.5629   -2.5883 C   0  0  0  0  0  0  0  0  0  0  0  0
   -4.4257   -1.7047   -2.0727 C   0  0  0  0  0  0  0  0  0  0  0  0
   -3.1686   -2.2412   -1.8737 C   0  0  0  0  0  0  0  0  0  0  0  0
   -2.1631   -1.4190   -1.4001 C   0  0  0  0  0  0  0  0  0  0  0  0
   -2.4533   -0.0916   -1.1479 C   0  0  0  0  0  0  0  0  0  0  0  0
   -0.1969    0.5652   -0.4140 C   0  0  0  0  0  0  0  0  0  0  0  0
    1.8655    1.5991    0.3969 C   0  0  0  0  0  0  0  0  0  0  0  0
    1.9649    1.2177    1.8690 C   0  0  1  0  0  0  0  0  0  0  0  0
    1.5541   -0.2342    2.0924 C   0  0  0  0  0  0  0  0  0  0  0  0
    2.8334   -1.0102    1.8001 C   0  0  0  0  0  0  0  0  0  0  0  0
    3.9444   -0.1345    2.3940 C   0  0  0  0  0  0  0  0  0  0  0  0
    5.5813    2.6689    1.6394 C   0  0  0  0  0  0  0  0  0  0  0  0
   -4.6298   -0.3652   -1.7907 C   0  0  0  0  0  0  0  0  0  0  0  0
   -5.3133   -3.8234   -2.1130 F   0  0  0  0  0  0  0  0  0  0  0  0
   -6.7461   -2.2104   -2.0114 F   0  0  0  0  0  0  0  0  0  0  0  0
   -1.5108    0.8406   -0.6672 N   0  0  0  0  0  0  0  0  0  0  0  0
    0.4713    1.6518   -0.0169 N   0  0  0  0  0  0  0  0  0  0  0  0
    3.3699    1.2214    2.3293 N   0  0  0  0  0  0  0  0  0  0  0  0
   -3.6632    0.4445   -1.3353 N   0  0  0  0  0  0  0  0  0  0  0  0
    0.3133   -0.5456   -0.5352 O   0  0  0  0  0  0  0  0  0  0  0  0
    4.6786    2.3976    4.0548 O   0  0  0  0  0  0  0  0  0  0  0  0
    3.3368    3.6843    2.4383 O   0  0  0  0  0  0  0  0  0  0  0  0
    4.1928    2.5754    2.7219 S   0  0  0  0  0  0  0  0  0  0  0  0
   -5.9749   -1.6467   -4.4900 H   0  0  0  0  0  0  0  0  0  0  0  0
   -6.5523   -3.2898   -4.3515 H   0  0  0  0  0  0  0  0  0  0  0  0
   -4.8474   -2.9785   -4.5764 H   0  0  0  0  0  0  0  0  0  0  0  0
   -2.9821   -3.2441   -2.0762 H   0  0  0  0  0  0  0  0  0  0  0  0
   -1.2063   -1.7923   -1.2367 H   0  0  0  0  0  0  0  0  0  0  0  0
   -1.8218    1.7552   -0.5023 H   0  0  0  0  0  0  0  0  0  0  0  0
    0.0063    2.5144   -0.0039 H   0  0  0  0  0  0  0  0  0  0  0  0
    2.3140    2.5594    0.2499 H   0  0  0  0  0  0  0  0  0  0  0  0
    2.3813    0.8700   -0.1924 H   0  0  0  0  0  0  0  0  0  0  0  0
    1.3644    1.8844    2.4520 H   0  0  0  0  0  0  0  0  0  0  0  0
    1.2331   -0.3906    3.1010 H   0  0  0  0  0  0  0  0  0  0  0  0
    0.7715   -0.5186    1.4204 H   0  0  0  0  0  0  0  0  0  0  0  0
    2.9700   -1.1345    0.7462 H   0  0  0  0  0  0  0  0  0  0  0  0
    2.8122   -1.9698    2.2732 H   0  0  0  0  0  0  0  0  0  0  0  0
    4.1553   -0.4145    3.4049 H   0  0  0  0  0  0  0  0  0  0  0  0
    4.8390   -0.2009    1.8108 H   0  0  0  0  0  0  0  0  0  0  0  0
    5.2525    2.5632    0.6267 H   0  0  0  0  0  0  0  0  0  0  0  0
    6.2699    1.8843    1.8743 H   0  0  0  0  0  0  0  0  0  0  0  0
    6.0643    3.6160    1.7602 H   0  0  0  0  0  0  0  0  0  0  0  0
   -5.5791    0.0326   -1.9393 H   0  0  0  0  0  0  0  0  0  0  0  0
  1  2  1  0  0  0  0
  1 25  1  0  0  0  0
  1 26  1  0  0  0  0
  1 27  1  0  0  0  0
  2 15  1  0  0  0  0
  2 16  1  0  0  0  0
  2  3  1  0  0  0  0
  3 14  1  0  0  0  0
  3  4  2  0  0  0  0
  4  5  1  0  0  0  0
  4 28  1  0  0  0  0
  5 29  1  0  0  0  0
  5  6  2  0  0  0  0
  6 17  1  0  0  0  0
  6 20  1  0  0  0  0
  7 17  1  0  0  0  0
  7 18  1  0  0  0  0
  7 21  2  0  0  0  0
  8 18  1  0  0  0  0
  8  9  1  0  0  0  0
  8 32  1  0  0  0  0
  8 33  1  0  0  0  0
  9 10  1  0  0  0  0
  9 19  1  0  0  0  0
  9 34  1  1  0  0  0
 10 11  1  0  0  0  0
 10 35  1  0  0  0  0
 10 36  1  0  0  0  0
 11 12  1  0  0  0  0
 11 37  1  0  0  0  0
 11 38  1  0  0  0  0
 12 19  1  0  0  0  0
 12 39  1  0  0  0  0
 12 40  1  0  0  0  0
 13 41  1  0  0  0  0
 13 42  1  0  0  0  0
 13 43  1  0  0  0  0
 14 44  1  0  0  0  0
 14 20  2  0  0  0  0
 17 30  1  0  0  0  0
 18 31  1  0  0  0  0
 24 19  1  0  0  0  0
 24 13  1  0  0  0  0
 24 22  2  0  0  0  0
 24 23  2  0  0  0  0
M  END
>  <score>
0.44706964492797852

$$$$
Z4642891733
 OpenBabel08202115463D

 45 46  0  0  0  0  0  0  0  0999 V2000
    5.6316    2.0211    3.7339 C   0  0  0  0  0  0  0  0  0  0  0  0
    5.4118    1.2446    2.4339 C   0  0  0  0  0  0  0  0  0  0  0  0
    6.0443   -0.1479    2.5335 C   0  0  0  0  0  0  0  0  0  0  0  0
    6.1558    1.9988    1.3285 C   0  0  0  0  0  0  0  0  0  0  0  0
    3.9486    1.1348    2.1397 C   0  0  0  0  0  0  0  0  0  0  0  0
    2.0482    1.1012    1.0420 C   0  0  0  0  0  0  0  0  0  0  0  0
    1.2322    1.2089   -0.2131 C   0  0  0  0  0  0  0  0  0  0  0  0
   -1.0014    0.3343   -1.0403 C   0  0  0  0  0  0  0  0  0  0  0  0
   -3.4146   -0.1805   -1.3756 C   0  0  0  0  0  0  0  0  0  0  0  0
   -4.2995    0.8528   -1.6414 C   0  0  0  0  0  0  0  0  0  0  0  0
   -5.4447    0.6103   -2.3763 C   0  0  0  0  0  0  0  0  0  0  0  0
   -5.7055   -0.6653   -2.8521 C   0  0  0  0  0  0  0  0  0  0  0  0
   -4.8233   -1.6957   -2.5872 C   0  0  0  0  0  0  0  0  0  0  0  0
   -6.6527   -3.8160   -2.3348 C   0  0  0  0  0  0  0  0  0  0  0  0
   -3.6748   -1.4523   -1.8501 C   0  0  0  0  0  0  0  0  0  0  0  0
    1.5494    0.8513    2.2840 C   0  0  0  0  0  0  0  0  0  0  0  0
    3.4063    1.2627    0.9615 N   0  0  0  0  0  0  0  0  0  0  0  0
   -0.1545    0.7844   -0.0223 N   0  0  0  0  0  0  0  0  0  0  0  0
   -2.2533    0.0649   -0.6240 N   0  0  0  0  0  0  0  0  0  0  0  0
   -0.5831    0.2163   -2.1891 O   0  0  0  0  0  0  0  0  0  0  0  0
   -4.0964   -4.1906   -2.7557 O   0  0  0  0  0  0  0  0  0  0  0  0
   -5.4510   -3.2332   -4.5829 O   0  0  0  0  0  0  0  0  0  0  0  0
   -5.1579   -3.3174   -3.1858 S   0  0  0  0  0  0  0  0  0  0  0  0
    2.8331    0.8137    3.4204 S   0  0  0  0  0  0  0  0  0  0  0  0
   -7.0096   -5.0980   -2.6798 F   0  0  0  0  0  0  0  0  0  0  0  0
    5.3067    3.0324    3.6052 H   0  0  0  0  0  0  0  0  0  0  0  0
    6.6719    2.0101    3.9841 H   0  0  0  0  0  0  0  0  0  0  0  0
    5.0700    1.5638    4.5215 H   0  0  0  0  0  0  0  0  0  0  0  0
    6.1255   -0.5740    1.5554 H   0  0  0  0  0  0  0  0  0  0  0  0
    5.4306   -0.7751    3.1457 H   0  0  0  0  0  0  0  0  0  0  0  0
    7.0184   -0.0666    2.9688 H   0  0  0  0  0  0  0  0  0  0  0  0
    5.6250    1.8945    0.4054 H   0  0  0  0  0  0  0  0  0  0  0  0
    7.1404    1.5937    1.2212 H   0  0  0  0  0  0  0  0  0  0  0  0
    6.2221    3.0351    1.5865 H   0  0  0  0  0  0  0  0  0  0  0  0
    1.6784    0.5927   -0.9655 H   0  0  0  0  0  0  0  0  0  0  0  0
    1.2364    2.2285   -0.5377 H   0  0  0  0  0  0  0  0  0  0  0  0
   -0.5175    0.8178    0.8874 H   0  0  0  0  0  0  0  0  0  0  0  0
   -2.3721    0.0356    0.3483 H   0  0  0  0  0  0  0  0  0  0  0  0
   -4.1018    1.8106   -1.2878 H   0  0  0  0  0  0  0  0  0  0  0  0
   -6.1106    1.3847   -2.5723 H   0  0  0  0  0  0  0  0  0  0  0  0
   -6.5651   -0.8470   -3.4085 H   0  0  0  0  0  0  0  0  0  0  0  0
   -7.4457   -3.1483   -2.5997 H   0  0  0  0  0  0  0  0  0  0  0  0
   -6.4859   -3.7712   -1.2788 H   0  0  0  0  0  0  0  0  0  0  0  0
   -3.0089   -2.2267   -1.6542 H   0  0  0  0  0  0  0  0  0  0  0  0
    0.5445    0.7057    2.5089 H   0  0  0  0  0  0  0  0  0  0  0  0
  1  2  1  0  0  0  0
  1 26  1  0  0  0  0
  1 27  1  0  0  0  0
  1 28  1  0  0  0  0
  2  3  1  0  0  0  0
  2  4  1  0  0  0  0
  2  5  1  0  0  0  0
  3 29  1  0  0  0  0
  3 30  1  0  0  0  0
  3 31  1  0  0  0  0
  4 32  1  0  0  0  0
  4 33  1  0  0  0  0
  4 34  1  0  0  0  0
  5 24  1  0  0  0  0
  5 17  2  0  0  0  0
  6 17  1  0  0  0  0
  6  7  1  0  0  0  0
  6 16  2  0  0  0  0
  7 18  1  0  0  0  0
  7 35  1  0  0  0  0
  7 36  1  0  0  0  0
  8 18  1  0  0  0  0
  8 19  1  0  0  0  0
  8 20  2  0  0  0  0
  9 19  1  0  0  0  0
  9 15  1  0  0  0  0
  9 10  2  0  0  0  0
 10 11  1  0  0  0  0
 10 39  1  0  0  0  0
 11 40  1  0  0  0  0
 11 12  2  0  0  0  0
 12 13  1  0  0  0  0
 12 41  1  0  0  0  0
 13 15  2  0  0  0  0
 14 25  1  0  0  0  0
 14 42  1  0  0  0  0
 14 43  1  0  0  0  0
 15 44  1  0  0  0  0
 16 24  1  0  0  0  0
 16 45  1  0  0  0  0
 18 37  1  0  0  0  0
 19 38  1  0  0  0  0
 23 13  1  0  0  0  0
 23 14  1  0  0  0  0
 23 21  2  0  0  0  0
 23 22  2  0  0  0  0
M  END
>  <score>
0.44715923070907593

$$$$
Z4611162602
 OpenBabel08202115463D

 42 45  0  0  0  0  0  0  0  0999 V2000
   -6.0480   -3.5900   -2.6779 C   0  0  0  0  0  0  0  0  0  0  0  0
   -5.7589   -2.1256   -4.6754 C   0  0  0  0  0  0  0  0  0  0  0  0
   -4.2772   -1.8455   -2.7003 C   0  0  0  0  0  0  0  0  0  0  0  0
   -3.4124   -2.4643   -1.8189 C   0  0  0  0  0  0  0  0  0  0  0  0
   -2.3583   -1.7351   -1.3006 C   0  0  0  0  0  0  0  0  0  0  0  0
   -2.2083   -0.4169   -1.6872 C   0  0  0  0  0  0  0  0  0  0  0  0
   -1.0772    0.3707   -1.1378 C   0  0  0  0  0  0  0  0  0  0  0  0
    0.6850    0.8055   -0.1041 C   0  0  0  0  0  0  0  0  0  0  0  0
    1.9498    0.8809    0.6786 C   0  0  0  0  0  0  0  0  0  0  0  0
    3.5770    1.6191    1.9725 C   0  0  0  0  0  0  0  0  0  0  0  0
    4.5127    2.3868    2.8757 C   0  0  1  0  0  0  0  0  0  0  0  0
    4.2649    2.0535    4.3235 C   0  0  0  0  0  0  0  0  0  0  0  0
    5.6259    2.3089    4.9779 C   0  0  0  0  0  0  0  0  0  0  0  0
    5.9682    1.9420    2.6716 C   0  0  0  0  0  0  0  0  0  0  0  0
    2.3666    1.9855    1.4338 C   0  0  0  0  0  0  0  0  0  0  0  0
   -4.0548   -0.5200   -3.0305 C   0  0  0  0  0  0  0  0  0  0  0  0
   -5.3873   -2.4534   -3.3055 N   0  0  0  0  0  0  0  0  0  0  0  0
   -0.9374    1.6538   -1.3400 N   0  0  0  0  0  0  0  0  0  0  0  0
    2.8399   -0.1134    0.7469 N   0  0  0  0  0  0  0  0  0  0  0  0
    3.8339    0.3616    1.5403 N   0  0  0  0  0  0  0  0  0  0  0  0
   -0.0856   -0.2042   -0.3678 N   0  0  0  0  0  0  0  0  0  0  0  0
   -3.0346    0.1976   -2.5392 N   0  0  0  0  0  0  0  0  0  0  0  0
    0.2451    1.9601   -0.6374 O   0  0  0  0  0  0  0  0  0  0  0  0
    6.5858    2.2050    3.9022 O   0  0  0  0  0  0  0  0  0  0  0  0
   -6.3651   -4.2798   -3.4318 H   0  0  0  0  0  0  0  0  0  0  0  0
   -6.8992   -3.2479   -2.1271 H   0  0  0  0  0  0  0  0  0  0  0  0
   -5.3650   -4.0771   -2.0137 H   0  0  0  0  0  0  0  0  0  0  0  0
   -6.8104   -2.2744   -4.8057 H   0  0  0  0  0  0  0  0  0  0  0  0
   -5.2229   -2.7586   -5.3513 H   0  0  0  0  0  0  0  0  0  0  0  0
   -5.5162   -1.1028   -4.8755 H   0  0  0  0  0  0  0  0  0  0  0  0
   -3.5515   -3.4594   -1.5503 H   0  0  0  0  0  0  0  0  0  0  0  0
   -1.6908   -2.1705   -0.6323 H   0  0  0  0  0  0  0  0  0  0  0  0
    4.6404   -0.1445    1.7723 H   0  0  0  0  0  0  0  0  0  0  0  0
    4.4011    3.4358    2.6968 H   0  0  0  0  0  0  0  0  0  0  0  0
    3.9703    1.0311    4.4370 H   0  0  0  0  0  0  0  0  0  0  0  0
    3.5130    2.6903    4.7407 H   0  0  0  0  0  0  0  0  0  0  0  0
    5.6554    3.2852    5.4146 H   0  0  0  0  0  0  0  0  0  0  0  0
    5.8244    1.5748    5.7306 H   0  0  0  0  0  0  0  0  0  0  0  0
    6.0166    0.8989    2.4385 H   0  0  0  0  0  0  0  0  0  0  0  0
    6.4301    2.5050    1.8877 H   0  0  0  0  0  0  0  0  0  0  0  0
    1.8671    2.8890    1.5598 H   0  0  0  0  0  0  0  0  0  0  0  0
   -4.7111   -0.0582   -3.6921 H   0  0  0  0  0  0  0  0  0  0  0  0
  1 17  1  0  0  0  0
  1 25  1  0  0  0  0
  1 26  1  0  0  0  0
  1 27  1  0  0  0  0
  2 17  1  0  0  0  0
  2 28  1  0  0  0  0
  2 29  1  0  0  0  0
  2 30  1  0  0  0  0
  3 17  1  0  0  0  0
  3 16  1  0  0  0  0
  3  4  2  0  0  0  0
  4  5  1  0  0  0  0
  4 31  1  0  0  0  0
  5 32  1  0  0  0  0
  5  6  2  0  0  0  0
  6  7  1  0  0  0  0
  6 22  1  0  0  0  0
  7 21  1  0  0  0  0
  7 18  2  0  0  0  0
  8 23  1  0  0  0  0
  8  9  1  0  0  0  0
  8 21  2  0  0  0  0
  9 15  1  0  0  0  0
  9 19  2  0  0  0  0
 10 20  1  0  0  0  0
 10 11  1  0  0  0  0
 10 15  2  0  0  0  0
 11 12  1  0  0  0  0
 11 14  1  0  0  0  0
 11 34  1  6  0  0  0
 12 13  1  0  0  0  0
 12 35  1  0  0  0  0
 12 36  1  0  0  0  0
 13 24  1  0  0  0  0
 13 37  1  0  0  0  0
 13 38  1  0  0  0  0
 14 24  1  0  0  0  0
 14 39  1  0  0  0  0
 14 40  1  0  0  0  0
 15 41  1  0  0  0  0
 16 42  1  0  0  0  0
 16 22  2  0  0  0  0
 18 23  1  0  0  0  0
 19 20  1  0  0  0  0
 20 33  1  0  0  0  0
M  END
>  <score>
0.44717520475387573

$$$$
Z4342133580
 OpenBabel08202115463D

 53 55  0  0  0  0  0  0  0  0999 V2000
   -8.2419   -2.8675   -4.2245 C   0  0  0  0  0  0  0  0  0  0  0  0
   -6.9690   -3.5673   -3.7884 C   0  0  0  0  0  0  0  0  0  0  0  0
   -5.9369   -2.5610   -3.3170 C   0  0  0  0  0  0  0  0  0  0  0  0
   -4.6699   -3.2049   -2.7781 C   0  0  0  0  0  0  0  0  0  0  0  0
   -3.7200   -2.2211   -2.1920 C   0  0  0  0  0  0  0  0  0  0  0  0
   -2.6120   -1.1737   -0.6132 C   0  0  0  0  0  0  0  0  0  0  0  0
   -2.2828   -0.9688    0.8369 C   0  0  0  0  0  0  0  0  0  0  0  0
   -2.0998   -0.4982   -1.6786 C   0  0  0  0  0  0  0  0  0  0  0  0
   -1.0820    0.6213   -1.7238 C   0  0  0  0  0  0  0  0  0  0  0  0
   -0.0272    0.3911   -0.6693 C   0  0  0  0  0  0  0  0  0  0  0  0
    1.7907    1.3790    0.4733 C   0  0  0  0  0  0  0  0  0  0  0  0
    2.7324    2.2265    0.9233 C   0  0  0  0  0  0  0  0  0  0  0  0
    2.9214    3.6761    0.5435 C   0  0  0  0  0  0  0  0  0  0  0  0
    3.5115    1.4643    1.8331 C   0  0  0  0  0  0  0  0  0  0  0  0
    4.7062    1.8711    2.6456 C   0  0  0  0  0  0  0  0  0  0  0  0
    4.5497    1.3318    4.0625 C   0  0  0  0  0  0  0  0  0  0  0  0
    5.8274    1.6205    4.8680 C   0  0  0  0  0  0  0  0  0  0  0  0
    7.1566    1.6039    2.8758 C   0  0  0  0  0  0  0  0  0  0  0  0
    5.9665    1.3273    1.9819 C   0  0  0  0  0  0  0  0  0  0  0  0
   -3.5300   -2.1479   -0.9046 N   0  0  0  0  0  0  0  0  0  0  0  0
    0.7579    1.4507   -0.3844 N   0  0  0  0  0  0  0  0  0  0  0  0
    3.0642    0.2329    1.9280 N   0  0  0  0  0  0  0  0  0  0  0  0
    0.0941   -0.7006   -0.1152 O   0  0  0  0  0  0  0  0  0  0  0  0
    6.9524    1.0479    4.1833 O   0  0  0  0  0  0  0  0  0  0  0  0
    1.9597    0.1636    1.0514 O   0  0  0  0  0  0  0  0  0  0  0  0
   -2.7927   -1.1014   -3.1266 S   0  0  0  0  0  0  0  0  0  0  0  0
   -8.6305   -2.2926   -3.4100 H   0  0  0  0  0  0  0  0  0  0  0  0
   -8.9655   -3.5972   -4.5228 H   0  0  0  0  0  0  0  0  0  0  0  0
   -8.0279   -2.2191   -5.0483 H   0  0  0  0  0  0  0  0  0  0  0  0
   -6.5705   -4.1177   -4.6149 H   0  0  0  0  0  0  0  0  0  0  0  0
   -7.1951   -4.2396   -2.9873 H   0  0  0  0  0  0  0  0  0  0  0  0
   -6.3722   -1.9670   -2.5407 H   0  0  0  0  0  0  0  0  0  0  0  0
   -5.6737   -1.9330   -4.1423 H   0  0  0  0  0  0  0  0  0  0  0  0
   -4.1795   -3.7154   -3.5805 H   0  0  0  0  0  0  0  0  0  0  0  0
   -4.9418   -3.9092   -2.0198 H   0  0  0  0  0  0  0  0  0  0  0  0
   -1.7148   -0.0692    0.9506 H   0  0  0  0  0  0  0  0  0  0  0  0
   -1.7100   -1.7994    1.1931 H   0  0  0  0  0  0  0  0  0  0  0  0
   -3.1890   -0.8918    1.4006 H   0  0  0  0  0  0  0  0  0  0  0  0
   -1.5714    1.5548   -1.5396 H   0  0  0  0  0  0  0  0  0  0  0  0
   -0.6209    0.6442   -2.6891 H   0  0  0  0  0  0  0  0  0  0  0  0
    0.5676    2.3075   -0.8204 H   0  0  0  0  0  0  0  0  0  0  0  0
    2.2706    3.9200   -0.2700 H   0  0  0  0  0  0  0  0  0  0  0  0
    3.9371    3.8377    0.2482 H   0  0  0  0  0  0  0  0  0  0  0  0
    2.6905    4.2976    1.3834 H   0  0  0  0  0  0  0  0  0  0  0  0
    4.7654    2.9388    2.6837 H   0  0  0  0  0  0  0  0  0  0  0  0
    3.7160    1.8081    4.5346 H   0  0  0  0  0  0  0  0  0  0  0  0
    4.3836    0.2755    4.0250 H   0  0  0  0  0  0  0  0  0  0  0  0
    5.9629    2.6781    4.9582 H   0  0  0  0  0  0  0  0  0  0  0  0
    5.7423    1.1870    5.8425 H   0  0  0  0  0  0  0  0  0  0  0  0
    8.0308    1.1660    2.4412 H   0  0  0  0  0  0  0  0  0  0  0  0
    7.2921    2.6618    2.9618 H   0  0  0  0  0  0  0  0  0  0  0  0
    6.1092    1.8079    1.0367 H   0  0  0  0  0  0  0  0  0  0  0  0
    5.8668    0.2721    1.8347 H   0  0  0  0  0  0  0  0  0  0  0  0
  1  2  1  0  0  0  0
  1 27  1  0  0  0  0
  1 28  1  0  0  0  0
  1 29  1  0  0  0  0
  2  3  1  0  0  0  0
  2 30  1  0  0  0  0
  2 31  1  0  0  0  0
  3  4  1  0  0  0  0
  3 32  1  0  0  0  0
  3 33  1  0  0  0  0
  4  5  1  0  0  0  0
  4 34  1  0  0  0  0
  4 35  1  0  0  0  0
  5 26  1  0  0  0  0
  5 20  2  0  0  0  0
  6 20  1  0  0  0  0
  6  7  1  0  0  0  0
  6  8  2  0  0  0  0
  7 36  1  0  0  0  0
  7 37  1  0  0  0  0
  7 38  1  0  0  0  0
  8  9  1  0  0  0  0
  8 26  1  0  0  0  0
  9 10  1  0  0  0  0
  9 39  1  0  0  0  0
  9 40  1  0  0  0  0
 10 21  1  0  0  0  0
 10 23  2  0  0  0  0
 11 21  1  0  0  0  0
 11 25  1  0  0  0  0
 11 12  2  0  0  0  0
 12 13  1  0  0  0  0
 12 14  1  0  0  0  0
 13 42  1  0  0  0  0
 13 43  1  0  0  0  0
 13 44  1  0  0  0  0
 14 15  1  0  0  0  0
 14 22  2  0  0  0  0
 15 16  1  0  0  0  0
 15 19  1  0  0  0  0
 15 45  1  0  0  0  0
 16 17  1  0  0  0  0
 16 46  1  0  0  0  0
 16 47  1  0  0  0  0
 17 24  1  0  0  0  0
 17 48  1  0  0  0  0
 17 49  1  0  0  0  0
 18 24  1  0  0  0  0
 18 19  1  0  0  0  0
 18 50  1  0  0  0  0
 18 51  1  0  0  0  0
 19 52  1  0  0  0  0
 19 53  1  0  0  0  0
 21 41  1  0  0  0  0
 22 25  1  0  0  0  0
M  END
>  <score>
0.44724899530410767

$$$$
PV-003972316398
 OpenBabel08202115463D

 55 57  0  0  0  0  0  0  0  0999 V2000
   -1.8127   -2.9236    0.0865 C   0  0  0  0  0  0  0  0  0  0  0  0
   -2.8650   -2.3453   -0.8142 C   0  0  0  0  0  0  0  0  0  0  0  0
   -3.0809   -1.0496   -1.1263 C   0  0  0  0  0  0  0  0  0  0  0  0
   -2.4842    0.2780   -0.7947 C   0  0  0  0  0  0  0  0  0  0  0  0
   -0.8381    1.4082    0.6841 C   0  0  0  0  0  0  0  0  0  0  0  0
    0.4395    2.0543    0.1833 C   0  0  0  0  0  0  0  0  0  0  0  0
    2.7054    1.0984    0.5586 C   0  0  0  0  0  0  0  0  0  0  0  0
    3.0612    2.3295    1.3459 C   0  0  0  0  0  0  0  0  0  0  0  0
    4.3638    2.1878    2.1162 C   0  0  1  0  0  0  0  0  0  0  0  0
    4.6578    3.4814    2.8582 C   0  0  0  0  0  0  0  0  0  0  0  0
    4.2666    1.0353    3.0968 C   0  0  0  0  0  0  0  0  0  0  0  0
    5.6606    0.4331    3.0470 C   0  0  0  0  0  0  0  0  0  0  0  0
    6.0293    0.6278    1.5858 C   0  0  0  0  0  0  0  0  0  0  0  0
    1.0539   -0.0321   -0.9227 C   0  0  0  0  0  0  0  0  0  0  0  0
   -0.2237   -0.6781   -0.4219 C   0  0  0  0  0  0  0  0  0  0  0  0
   -4.5280   -2.3089   -2.1433 C   0  0  0  0  0  0  0  0  0  0  0  0
   -5.7080   -2.5882   -3.0543 C   0  0  0  0  0  0  0  0  0  0  0  0
   -5.5459   -2.0253   -4.4569 C   0  0  0  0  0  0  0  0  0  0  0  0
   -7.0119   -2.1134   -2.4340 C   0  0  0  0  0  0  0  0  0  0  0  0
   -3.1415    1.2778   -1.0673 O   0  0  0  0  0  0  0  0  0  0  0  0
    3.5036    0.1690    0.4457 O   0  0  0  0  0  0  0  0  0  0  0  0
    5.4418    1.8794    1.2129 O   0  0  0  0  0  0  0  0  0  0  0  0
   -4.1581   -1.0102   -1.9888 O   0  0  0  0  0  0  0  0  0  0  0  0
   -1.2627    0.3319   -0.2161 N   0  0  0  0  0  0  0  0  0  0  0  0
    1.4785    1.0443   -0.0225 N   0  0  0  0  0  0  0  0  0  0  0  0
   -3.7902   -3.1432   -1.4645 N   0  0  0  0  0  0  0  0  0  0  0  0
   -2.1593   -3.8517    0.4907 H   0  0  0  0  0  0  0  0  0  0  0  0
   -1.6119   -2.2400    0.8847 H   0  0  0  0  0  0  0  0  0  0  0  0
   -0.9168   -3.0914   -0.4740 H   0  0  0  0  0  0  0  0  0  0  0  0
   -0.6676    1.0031    1.6596 H   0  0  0  0  0  0  0  0  0  0  0  0
   -1.6093    2.1483    0.7345 H   0  0  0  0  0  0  0  0  0  0  0  0
    0.7798    2.7672    0.9051 H   0  0  0  0  0  0  0  0  0  0  0  0
    0.2428    2.5509   -0.7438 H   0  0  0  0  0  0  0  0  0  0  0  0
    2.2735    2.5278    2.0423 H   0  0  0  0  0  0  0  0  0  0  0  0
    3.1541    3.1521    0.6680 H   0  0  0  0  0  0  0  0  0  0  0  0
    4.6583    4.2977    2.1664 H   0  0  0  0  0  0  0  0  0  0  0  0
    5.6163    3.4125    3.3287 H   0  0  0  0  0  0  0  0  0  0  0  0
    3.9058    3.6447    3.6016 H   0  0  0  0  0  0  0  0  0  0  0  0
    3.5289    0.3255    2.7853 H   0  0  0  0  0  0  0  0  0  0  0  0
    4.0328    1.3850    4.0806 H   0  0  0  0  0  0  0  0  0  0  0  0
    6.3347    0.9568    3.6922 H   0  0  0  0  0  0  0  0  0  0  0  0
    5.6469   -0.6039    3.3107 H   0  0  0  0  0  0  0  0  0  0  0  0
    7.0923    0.6629    1.4688 H   0  0  0  0  0  0  0  0  0  0  0  0
    5.6303   -0.1660    0.9895 H   0  0  0  0  0  0  0  0  0  0  0  0
    0.8834    0.3731   -1.8983 H   0  0  0  0  0  0  0  0  0  0  0  0
    1.8251   -0.7721   -0.9731 H   0  0  0  0  0  0  0  0  0  0  0  0
   -0.0270   -1.1747    0.5052 H   0  0  0  0  0  0  0  0  0  0  0  0
   -0.5640   -1.3910   -1.1437 H   0  0  0  0  0  0  0  0  0  0  0  0
   -5.7802   -3.6512   -3.1528 H   0  0  0  0  0  0  0  0  0  0  0  0
   -4.6223   -2.3678   -4.8747 H   0  0  0  0  0  0  0  0  0  0  0  0
   -5.5429   -0.9562   -4.4137 H   0  0  0  0  0  0  0  0  0  0  0  0
   -6.3585   -2.3558   -5.0696 H   0  0  0  0  0  0  0  0  0  0  0  0
   -7.7626   -2.8652   -2.5611 H   0  0  0  0  0  0  0  0  0  0  0  0
   -7.3269   -1.2104   -2.9139 H   0  0  0  0  0  0  0  0  0  0  0  0
   -6.8641   -1.9302   -1.3902 H   0  0  0  0  0  0  0  0  0  0  0  0
  1  2  1  0  0  0  0
  1 27  1  0  0  0  0
  1 28  1  0  0  0  0
  1 29  1  0  0  0  0
  2 26  1  0  0  0  0
  2  3  2  0  0  0  0
  3  4  1  0  0  0  0
  3 23  1  0  0  0  0
  4 24  1  0  0  0  0
  4 20  2  0  0  0  0
  5 24  1  0  0  0  0
  5  6  1  0  0  0  0
  5 30  1  0  0  0  0
  5 31  1  0  0  0  0
  6 25  1  0  0  0  0
  6 32  1  0  0  0  0
  6 33  1  0  0  0  0
  7 25  1  0  0  0  0
  7  8  1  0  0  0  0
  7 21  2  0  0  0  0
  8 34  1  0  0  0  0
  8 35  1  0  0  0  0
  9  8  1  6  0  0  0
  9 10  1  0  0  0  0
  9 11  1  0  0  0  0
  9 22  1  0  0  0  0
 10 36  1  0  0  0  0
 10 37  1  0  0  0  0
 10 38  1  0  0  0  0
 11 12  1  0  0  0  0
 11 39  1  0  0  0  0
 11 40  1  0  0  0  0
 12 13  1  0  0  0  0
 12 41  1  0  0  0  0
 12 42  1  0  0  0  0
 13 22  1  0  0  0  0
 13 43  1  0  0  0  0
 13 44  1  0  0  0  0
 14 25  1  0  0  0  0
 14 15  1  0  0  0  0
 14 45  1  0  0  0  0
 14 46  1  0  0  0  0
 15 24  1  0  0  0  0
 15 47  1  0  0  0  0
 15 48  1  0  0  0  0
 16 23  1  0  0  0  0
 16 17  1  0  0  0  0
 16 26  2  0  0  0  0
 17 18  1  0  0  0  0
 17 19  1  0  0  0  0
 17 49  1  0  0  0  0
 18 50  1  0  0  0  0
 18 51  1  0  0  0  0
 18 52  1  0  0  0  0
 19 53  1  0  0  0  0
 19 54  1  0  0  0  0
 19 55  1  0  0  0  0
M  END
>  <score>
0.44727063179016113

$$$$
PV-003596833312
 OpenBabel08202115463D

 51 54  0  0  0  0  0  0  0  0999 V2000
    3.5135    2.2201    0.4730 O   0  0  0  0  0  0  0  0  0  0  0  0
   -5.7494    0.1426   -2.7749 O   0  0  0  0  0  0  0  0  0  0  0  0
    3.2020    1.4683    1.3957 C   0  0  0  0  0  0  0  0  0  0  0  0
    0.7916    2.0199    1.2726 C   0  0  0  0  0  0  0  0  0  0  0  0
    0.1387    1.2265    0.1420 C   0  0  1  0  0  0  0  0  0  0  0  0
   -0.6109   -0.0397    0.5947 C   0  0  0  0  0  0  0  0  0  0  0  0
   -1.6702    0.3189   -0.4482 C   0  0  1  0  0  0  0  0  0  0  0  0
   -1.2210    1.7755   -0.3269 C   0  0  0  0  0  0  0  0  0  0  0  0
   -1.7138   -0.3847   -1.8051 C   0  0  0  0  0  0  0  0  0  0  0  0
   -3.2321   -0.1300   -1.7909 C   0  0  2  0  0  0  0  0  0  0  0  0
   -5.2608   -0.9861   -2.8060 C   0  0  0  0  0  0  0  0  0  0  0  0
   -6.0140   -2.1290   -3.3952 C   0  0  0  0  0  0  0  0  0  0  0  0
   -6.9593   -2.0090   -4.5532 C   0  0  0  0  0  0  0  0  0  0  0  0
   -7.4763   -2.3800   -3.1989 C   0  0  0  0  0  0  0  0  0  0  0  0
   -3.1373   -0.0761   -0.2553 C   0  0  0  0  0  0  0  0  0  0  0  0
    4.2376    0.6251    2.1045 C   0  0  1  0  0  0  0  0  0  0  0  0
    5.4947    0.5693    1.2597 C   0  0  0  0  0  0  0  0  0  0  0  0
    6.5898   -0.2699    1.8751 C   0  0  0  0  0  0  0  0  0  0  0  0
    7.0806    0.2390    3.2405 C   0  0  0  0  0  0  0  0  0  0  0  0
    5.9281    0.2471    4.2603 C   0  0  0  0  0  0  0  0  0  0  0  0
    1.9475    1.3393    1.8370 N   0  0  0  0  0  0  0  0  0  0  0  0
   -4.0365   -1.2252   -2.3118 N   0  0  0  0  0  0  0  0  0  0  0  0
   -5.1436   -3.1824   -3.3147 F   0  0  0  0  0  0  0  0  0  0  0  0
    4.5832    1.3521    3.7328 S   0  0  0  0  0  0  0  0  0  0  0  0
    1.7942    0.7412    2.5981 H   0  0  0  0  0  0  0  0  0  0  0  0
    1.1056    2.9682    0.8891 H   0  0  0  0  0  0  0  0  0  0  0  0
    0.0695    2.1695    2.0479 H   0  0  0  0  0  0  0  0  0  0  0  0
    0.8508    1.0683   -0.6409 H   0  0  0  0  0  0  0  0  0  0  0  0
   -0.9540   -0.0200    1.6080 H   0  0  0  0  0  0  0  0  0  0  0  0
   -0.0929   -0.9577    0.4108 H   0  0  0  0  0  0  0  0  0  0  0  0
   -1.7501    2.3488    0.4054 H   0  0  0  0  0  0  0  0  0  0  0  0
   -1.1927    2.3148   -1.2506 H   0  0  0  0  0  0  0  0  0  0  0  0
   -1.4317   -1.4166   -1.7848 H   0  0  0  0  0  0  0  0  0  0  0  0
   -1.1821    0.1156   -2.5874 H   0  0  0  0  0  0  0  0  0  0  0  0
   -3.5354    0.7867   -2.2520 H   0  0  0  0  0  0  0  0  0  0  0  0
   -3.6833   -2.1392   -2.3015 H   0  0  0  0  0  0  0  0  0  0  0  0
   -6.9407   -2.7375   -5.3367 H   0  0  0  0  0  0  0  0  0  0  0  0
   -7.1809   -1.0468   -4.9654 H   0  0  0  0  0  0  0  0  0  0  0  0
   -8.0683   -1.6828   -2.6435 H   0  0  0  0  0  0  0  0  0  0  0  0
   -7.8281   -3.3736   -3.0148 H   0  0  0  0  0  0  0  0  0  0  0  0
   -3.2889   -1.0139    0.2371 H   0  0  0  0  0  0  0  0  0  0  0  0
   -3.7470    0.6723    0.2063 H   0  0  0  0  0  0  0  0  0  0  0  0
    3.8603   -0.3674    2.2370 H   0  0  0  0  0  0  0  0  0  0  0  0
    5.2447    0.1548    0.3054 H   0  0  0  0  0  0  0  0  0  0  0  0
    5.8621    1.5660    1.1310 H   0  0  0  0  0  0  0  0  0  0  0  0
    7.4219   -0.2816    1.2025 H   0  0  0  0  0  0  0  0  0  0  0  0
    6.2188   -1.2655    2.0017 H   0  0  0  0  0  0  0  0  0  0  0  0
    7.8600   -0.4024    3.5955 H   0  0  0  0  0  0  0  0  0  0  0  0
    7.4593    1.2336    3.1298 H   0  0  0  0  0  0  0  0  0  0  0  0
    6.3022    0.5808    5.2056 H   0  0  0  0  0  0  0  0  0  0  0  0
    5.5436   -0.7466    4.3589 H   0  0  0  0  0  0  0  0  0  0  0  0
  3 21  1  0  0  0  0
  3 16  1  0  0  0  0
  3  1  2  0  0  0  0
  4 21  1  0  0  0  0
  4  5  1  0  0  0  0
  4 26  1  0  0  0  0
  4 27  1  0  0  0  0
  5  6  1  0  0  0  0
  5  8  1  0  0  0  0
  5 28  1  6  0  0  0
  6 29  1  0  0  0  0
  6 30  1  0  0  0  0
  7  6  1  1  0  0  0
  7  8  1  0  0  0  0
  7  9  1  0  0  0  0
  7 15  1  0  0  0  0
  8 31  1  0  0  0  0
  8 32  1  0  0  0  0
  9 10  1  0  0  0  0
  9 33  1  0  0  0  0
  9 34  1  0  0  0  0
 10 22  1  0  0  0  0
 10 15  1  0  0  0  0
 10 35  1  6  0  0  0
 11 22  1  0  0  0  0
 11 12  1  0  0  0  0
 11  2  2  0  0  0  0
 12 23  1  0  0  0  0
 12 13  1  0  0  0  0
 12 14  1  0  0  0  0
 13 14  1  0  0  0  0
 13 37  1  0  0  0  0
 13 38  1  0  0  0  0
 14 39  1  0  0  0  0
 14 40  1  0  0  0  0
 15 41  1  0  0  0  0
 15 42  1  0  0  0  0
 16 17  1  0  0  0  0
 16 24  1  0  0  0  0
 16 43  1  1  0  0  0
 17 18  1  0  0  0  0
 17 44  1  0  0  0  0
 17 45  1  0  0  0  0
 18 19  1  0  0  0  0
 18 46  1  0  0  0  0
 18 47  1  0  0  0  0
 19 20  1  0  0  0  0
 19 48  1  0  0  0  0
 19 49  1  0  0  0  0
 20 24  1  0  0  0  0
 20 50  1  0  0  0  0
 20 51  1  0  0  0  0
 21 25  1  0  0  0  0
 22 36  1  0  0  0  0
M  END
>  <score>
0.4473760724067688

$$$$
PV-003772378244
 OpenBabel08202115463D

 46 49  0  0  0  0  0  0  0  0999 V2000
    1.2503    2.0012    1.6043 O   0  0  0  0  0  0  0  0  0  0  0  0
    5.9310    0.7334    1.5720 O   0  0  0  0  0  0  0  0  0  0  0  0
    1.9011    1.4577    0.7157 C   0  0  0  0  0  0  0  0  0  0  0  0
    3.4000    1.5835    0.6569 C   0  0  0  0  0  0  0  0  0  0  0  0
    3.9934    2.2336    1.8999 C   0  0  1  0  0  0  0  0  0  0  0  0
    3.5397    1.5130    3.1680 C   0  0  0  0  0  0  0  0  0  0  0  0
    4.6025    1.8565    4.2208 C   0  0  0  0  0  0  0  0  0  0  0  0
    5.8322    2.3377    3.4276 C   0  0  0  0  0  0  0  0  0  0  0  0
    5.5436    2.0578    1.9409 C   0  0  1  0  0  0  0  0  0  0  0  0
   -0.0443    0.4254   -0.3689 C   0  0  0  0  0  0  0  0  0  0  0  0
   -0.4221   -0.4356   -1.3248 C   0  0  0  0  0  0  0  0  0  0  0  0
   -2.4127   -1.5853   -2.3450 C   0  0  0  0  0  0  0  0  0  0  0  0
   -3.7358   -1.5122   -1.9673 C   0  0  0  0  0  0  0  0  0  0  0  0
   -4.8393   -2.2637   -2.6146 C   0  0  0  0  0  0  0  0  0  0  0  0
   -6.1484   -1.9813   -2.2730 C   0  0  0  0  0  0  0  0  0  0  0  0
   -7.1868   -2.6740   -2.8759 C   0  0  0  0  0  0  0  0  0  0  0  0
   -6.9129   -3.6508   -3.8146 C   0  0  0  0  0  0  0  0  0  0  0  0
   -5.5998   -3.9339   -4.1571 C   0  0  0  0  0  0  0  0  0  0  0  0
   -4.5644   -3.2433   -3.5560 C   0  0  0  0  0  0  0  0  0  0  0  0
   -2.7197   -0.1876   -0.6164 C   0  0  0  0  0  0  0  0  0  0  0  0
   -2.3113    0.7035    0.3784 C   0  0  0  0  0  0  0  0  0  0  0  0
   -0.9981    1.0126    0.4941 C   0  0  0  0  0  0  0  0  0  0  0  0
    1.3324    0.7131   -0.2675 N   0  0  0  0  0  0  0  0  0  0  0  0
   -1.7548   -0.7406   -1.4646 N   0  0  0  0  0  0  0  0  0  0  0  0
   -3.9286   -0.6576   -0.9127 N   0  0  0  0  0  0  0  0  0  0  0  0
    3.6588    2.1775   -0.1946 H   0  0  0  0  0  0  0  0  0  0  0  0
    3.8199    0.6050    0.5508 H   0  0  0  0  0  0  0  0  0  0  0  0
    3.7218    3.2682    1.9261 H   0  0  0  0  0  0  0  0  0  0  0  0
    3.4988    0.4561    3.0058 H   0  0  0  0  0  0  0  0  0  0  0  0
    2.5773    1.8645    3.4764 H   0  0  0  0  0  0  0  0  0  0  0  0
    4.2494    2.6317    4.8684 H   0  0  0  0  0  0  0  0  0  0  0  0
    4.8474    0.9910    4.8002 H   0  0  0  0  0  0  0  0  0  0  0  0
    5.9824    3.3858    3.5821 H   0  0  0  0  0  0  0  0  0  0  0  0
    6.7041    1.8020    3.7402 H   0  0  0  0  0  0  0  0  0  0  0  0
    6.0359    2.7640    1.3055 H   0  0  0  0  0  0  0  0  0  0  0  0
    5.8361    0.1494    2.3280 H   0  0  0  0  0  0  0  0  0  0  0  0
    1.9236    0.3482   -0.9587 H   0  0  0  0  0  0  0  0  0  0  0  0
    0.2852   -0.8676   -1.9531 H   0  0  0  0  0  0  0  0  0  0  0  0
   -2.0006   -2.1475   -3.1168 H   0  0  0  0  0  0  0  0  0  0  0  0
   -6.3544   -1.2491   -1.5637 H   0  0  0  0  0  0  0  0  0  0  0  0
   -8.1720   -2.4587   -2.6218 H   0  0  0  0  0  0  0  0  0  0  0  0
   -7.6918   -4.1732   -4.2639 H   0  0  0  0  0  0  0  0  0  0  0  0
   -5.3938   -4.6661   -4.8664 H   0  0  0  0  0  0  0  0  0  0  0  0
   -3.5791   -3.4585   -3.8101 H   0  0  0  0  0  0  0  0  0  0  0  0
   -3.0089    1.1256    1.0240 H   0  0  0  0  0  0  0  0  0  0  0  0
   -0.6887    1.6868    1.2230 H   0  0  0  0  0  0  0  0  0  0  0  0
  2 36  1  0  0  0  0
  3  4  1  0  0  0  0
  3 23  1  0  0  0  0
  3  1  2  0  0  0  0
  4  5  1  0  0  0  0
  4 26  1  0  0  0  0
  4 27  1  0  0  0  0
  5  6  1  0  0  0  0
  5  9  1  0  0  0  0
  5 28  1  1  0  0  0
  6  7  1  0  0  0  0
  6 29  1  0  0  0  0
  6 30  1  0  0  0  0
  7  8  1  0  0  0  0
  7 31  1  0  0  0  0
  7 32  1  0  0  0  0
  8  9  1  0  0  0  0
  8 33  1  0  0  0  0
  8 34  1  0  0  0  0
  9  2  1  0  0  0  0
  9 35  1  6  0  0  0
 10 23  1  0  0  0  0
 10 22  1  0  0  0  0
 10 11  2  0  0  0  0
 11 24  1  0  0  0  0
 11 38  1  0  0  0  0
 12 24  1  0  0  0  0
 12 39  1  0  0  0  0
 12 13  2  0  0  0  0
 13 14  1  0  0  0  0
 13 25  1  0  0  0  0
 14 19  1  0  0  0  0
 14 15  2  0  0  0  0
 15 16  1  0  0  0  0
 15 40  1  0  0  0  0
 16 41  1  0  0  0  0
 16 17  2  0  0  0  0
 17 18  1  0  0  0  0
 17 42  1  0  0  0  0
 18 43  1  0  0  0  0
 18 19  2  0  0  0  0
 19 44  1  0  0  0  0
 20 24  1  0  0  0  0
 20 21  1  0  0  0  0
 20 25  2  0  0  0  0
 21 45  1  0  0  0  0
 21 22  2  0  0  0  0
 22 46  1  0  0  0  0
 23 37  1  0  0  0  0
M  END
>  <score>
0.44740098714828491

$$$$
Z3496137136
 OpenBabel08202115463D

 41 42  0  0  0  0  0  0  0  0999 V2000
    6.3882    2.2151    1.9433 C   0  0  0  0  0  0  0  0  0  0  0  0
    3.1620    1.4062    2.1661 C   0  0  0  0  0  0  0  0  0  0  0  0
    2.8785    2.6868    2.6019 C   0  0  0  0  0  0  0  0  0  0  0  0
    1.8067    3.3809    2.0627 C   0  0  0  0  0  0  0  0  0  0  0  0
    1.0181    2.7906    1.0932 C   0  0  0  0  0  0  0  0  0  0  0  0
    1.3025    1.5062    0.6563 C   0  0  0  0  0  0  0  0  0  0  0  0
    0.4447    0.8626   -0.4074 C   0  0  0  0  0  0  0  0  0  0  0  0
   -1.7276   -0.4231   -0.5657 C   0  0  0  0  0  0  0  0  0  0  0  0
   -2.6376   -1.2637    0.0511 C   0  0  0  0  0  0  0  0  0  0  0  0
   -3.6156   -1.8629   -0.7185 C   0  0  0  0  0  0  0  0  0  0  0  0
   -3.6469   -1.5996   -2.0755 C   0  0  0  0  0  0  0  0  0  0  0  0
   -5.4003   -3.1741   -2.4978 C   0  0  0  0  0  0  0  0  0  0  0  0
   -6.3557   -3.6194   -3.6206 C   0  0  0  0  0  0  0  0  0  0  0  0
   -2.7013   -0.7444   -2.6086 C   0  0  0  0  0  0  0  0  0  0  0  0
    2.3712    0.8139    1.1937 C   0  0  0  0  0  0  0  0  0  0  0  0
    5.7169    0.5889    2.0003 S   0  0  0  0  0  0  0  0  0  0  0  0
    6.5432   -0.1846    2.8961 O   0  0  0  0  0  0  0  0  0  0  0  0
    5.6462    0.1062    0.6378 O   0  0  0  0  0  0  0  0  0  0  0  0
   -4.5343   -2.1079   -2.9631 O   0  0  0  0  0  0  0  0  0  0  0  0
    4.2590    0.6999    2.7123 N   0  0  0  0  0  0  0  0  0  0  0  0
   -0.7336    0.1955    0.1458 N   0  0  0  0  0  0  0  0  0  0  0  0
   -1.7488   -0.1555   -1.8791 N   0  0  0  0  0  0  0  0  0  0  0  0
   -6.9158   -2.5690   -4.1953 F   0  0  0  0  0  0  0  0  0  0  0  0
   -7.3127   -4.3906   -3.1344 F   0  0  0  0  0  0  0  0  0  0  0  0
   -5.6988   -4.2999   -4.5438 F   0  0  0  0  0  0  0  0  0  0  0  0
    7.3533    2.1829    1.4823 H   0  0  0  0  0  0  0  0  0  0  0  0
    6.4797    2.5991    2.9378 H   0  0  0  0  0  0  0  0  0  0  0  0
    5.7411    2.8491    1.3738 H   0  0  0  0  0  0  0  0  0  0  0  0
    4.1327    0.2493    3.5734 H   0  0  0  0  0  0  0  0  0  0  0  0
    3.4694    3.1296    3.3343 H   0  0  0  0  0  0  0  0  0  0  0  0
    1.5958    4.3461    2.3877 H   0  0  0  0  0  0  0  0  0  0  0  0
    0.2116    3.3099    0.6916 H   0  0  0  0  0  0  0  0  0  0  0  0
    1.0339    0.1386   -0.9306 H   0  0  0  0  0  0  0  0  0  0  0  0
    0.1203    1.6199   -1.0902 H   0  0  0  0  0  0  0  0  0  0  0  0
   -0.8207    0.1906    1.1220 H   0  0  0  0  0  0  0  0  0  0  0  0
   -2.5861   -1.4410    1.0746 H   0  0  0  0  0  0  0  0  0  0  0  0
   -4.3148   -2.4997   -0.2858 H   0  0  0  0  0  0  0  0  0  0  0  0
   -5.9740   -2.8239   -1.6652 H   0  0  0  0  0  0  0  0  0  0  0  0
   -4.8014   -4.0070   -2.1938 H   0  0  0  0  0  0  0  0  0  0  0  0
   -2.7326   -0.5490   -3.6296 H   0  0  0  0  0  0  0  0  0  0  0  0
    2.5820   -0.1512    0.8687 H   0  0  0  0  0  0  0  0  0  0  0  0
  1 26  1  0  0  0  0
  1 27  1  0  0  0  0
  1 28  1  0  0  0  0
  2 20  1  0  0  0  0
  2 15  1  0  0  0  0
  2  3  2  0  0  0  0
  3  4  1  0  0  0  0
  3 30  1  0  0  0  0
  4 31  1  0  0  0  0
  4  5  2  0  0  0  0
  5  6  1  0  0  0  0
  5 32  1  0  0  0  0
  6  7  1  0  0  0  0
  6 15  2  0  0  0  0
  7 21  1  0  0  0  0
  7 33  1  0  0  0  0
  7 34  1  0  0  0  0
  8 21  1  0  0  0  0
  8 22  1  0  0  0  0
  8  9  2  0  0  0  0
  9 10  1  0  0  0  0
  9 36  1  0  0  0  0
 10 37  1  0  0  0  0
 10 11  2  0  0  0  0
 11 19  1  0  0  0  0
 11 14  1  0  0  0  0
 12 19  1  0  0  0  0
 12 13  1  0  0  0  0
 12 38  1  0  0  0  0
 12 39  1  0  0  0  0
 13 23  1  0  0  0  0
 13 24  1  0  0  0  0
 13 25  1  0  0  0  0
 14 40  1  0  0  0  0
 14 22  2  0  0  0  0
 15 41  1  0  0  0  0
 16  1  1  0  0  0  0
 16 20  1  0  0  0  0
 16 17  2  0  0  0  0
 16 18  2  0  0  0  0
 20 29  1  0  0  0  0
 21 35  1  0  0  0  0
M  END
>  <score>
0.44740879535675049

$$$$
PV-002864713756
 OpenBabel08202115463D

 48 49  0  0  0  0  0  0  0  0999 V2000
    2.3569    1.7166   -0.8348 O   0  0  0  0  0  0  0  0  0  0  0  0
   -1.7704    0.2924    0.8557 O   0  0  0  0  0  0  0  0  0  0  0  0
   -3.4447   -1.8106   -3.0143 O   0  0  0  0  0  0  0  0  0  0  0  0
    2.0918    0.8492   -0.0036 C   0  0  0  0  0  0  0  0  0  0  0  0
    3.1106    0.4231    1.0194 C   0  0  0  0  0  0  0  0  0  0  0  0
    4.3485    1.3104    1.0341 C   0  0  1  0  0  0  0  0  0  0  0  0
    3.9230    2.7709    1.3468 C   0  0  0  0  0  0  0  0  0  0  0  0
    3.3962    2.9414    2.8079 C   0  0  0  0  0  0  0  0  0  0  0  0
    4.3896    2.4107    3.8792 C   0  0  0  0  0  0  0  0  0  0  0  0
    4.8151    0.9503    3.5666 C   0  0  0  0  0  0  0  0  0  0  0  0
    5.3417    0.7797    2.1054 C   0  0  0  0  0  0  0  0  0  0  0  0
   -0.1950    0.6743   -0.8522 C   0  0  0  0  0  0  0  0  0  0  0  0
   -1.5058   -0.0151   -0.5162 C   0  0  2  0  0  0  0  0  0  0  0  0
   -2.6310    0.4046   -1.4341 C   0  0  0  0  0  0  0  0  0  0  0  0
   -4.1624   -1.4384   -2.0869 C   0  0  0  0  0  0  0  0  0  0  0  0
   -5.5285   -2.0410   -1.8691 C   0  0  0  0  0  0  0  0  0  0  0  0
   -5.7868   -4.9272   -3.8481 C   0  0  0  0  0  0  0  0  0  0  0  0
   -6.5389   -4.0153   -4.5953 C   0  0  0  0  0  0  0  0  0  0  0  0
    5.5568   -0.5217    1.8793 F   0  0  0  0  0  0  0  0  0  0  0  0
    6.5104    1.4596    1.9854 F   0  0  0  0  0  0  0  0  0  0  0  0
    0.8939    0.2579    0.0188 N   0  0  0  0  0  0  0  0  0  0  0  0
   -3.8236   -0.4301   -1.2784 N   0  0  0  0  0  0  0  0  0  0  0  0
   -5.7966   -3.0731   -2.8702 N   0  0  0  0  0  0  0  0  0  0  0  0
   -5.3191   -4.3196   -2.7619 N   0  0  0  0  0  0  0  0  0  0  0  0
   -6.5333   -2.8415   -3.9556 N   0  0  0  0  0  0  0  0  0  0  0  0
    3.4131   -0.5799    0.8015 H   0  0  0  0  0  0  0  0  0  0  0  0
    2.6559    0.4567    1.9874 H   0  0  0  0  0  0  0  0  0  0  0  0
    4.8203    1.2811    0.0742 H   0  0  0  0  0  0  0  0  0  0  0  0
    4.7693    3.4113    1.2104 H   0  0  0  0  0  0  0  0  0  0  0  0
    3.1469    3.0549    0.6671 H   0  0  0  0  0  0  0  0  0  0  0  0
    2.4750    2.4054    2.9025 H   0  0  0  0  0  0  0  0  0  0  0  0
    3.2243    3.9819    2.9886 H   0  0  0  0  0  0  0  0  0  0  0  0
    5.2592    3.0340    3.8895 H   0  0  0  0  0  0  0  0  0  0  0  0
    3.9178    2.4400    4.8391 H   0  0  0  0  0  0  0  0  0  0  0  0
    3.9688    0.3099    3.7030 H   0  0  0  0  0  0  0  0  0  0  0  0
    5.5912    0.6662    4.2462 H   0  0  0  0  0  0  0  0  0  0  0  0
    0.7434   -0.4820    0.6436 H   0  0  0  0  0  0  0  0  0  0  0  0
    0.0661    0.4406   -1.8631 H   0  0  0  0  0  0  0  0  0  0  0  0
   -0.3283    1.7314   -0.7530 H   0  0  0  0  0  0  0  0  0  0  0  0
   -1.3651   -1.0704   -0.6224 H   0  0  0  0  0  0  0  0  0  0  0  0
   -1.9740   -0.5160    1.3318 H   0  0  0  0  0  0  0  0  0  0  0  0
   -2.2923    0.3331   -2.4465 H   0  0  0  0  0  0  0  0  0  0  0  0
   -2.8916    1.4190   -1.2154 H   0  0  0  0  0  0  0  0  0  0  0  0
   -4.4182   -0.2346   -0.5243 H   0  0  0  0  0  0  0  0  0  0  0  0
   -6.2691   -1.2727   -1.9479 H   0  0  0  0  0  0  0  0  0  0  0  0
   -5.5694   -2.4777   -0.8931 H   0  0  0  0  0  0  0  0  0  0  0  0
   -5.6200   -5.9220   -4.1015 H   0  0  0  0  0  0  0  0  0  0  0  0
   -7.0203   -4.2160   -5.4951 H   0  0  0  0  0  0  0  0  0  0  0  0
  2 41  1  0  0  0  0
  4  5  1  0  0  0  0
  4 21  1  0  0  0  0
  4  1  2  0  0  0  0
  5  6  1  0  0  0  0
  5 26  1  0  0  0  0
  5 27  1  0  0  0  0
  6  7  1  0  0  0  0
  6 11  1  0  0  0  0
  6 28  1  6  0  0  0
  7  8  1  0  0  0  0
  7 29  1  0  0  0  0
  7 30  1  0  0  0  0
  8  9  1  0  0  0  0
  8 31  1  0  0  0  0
  8 32  1  0  0  0  0
  9 10  1  0  0  0  0
  9 33  1  0  0  0  0
  9 34  1  0  0  0  0
 10 11  1  0  0  0  0
 10 35  1  0  0  0  0
 10 36  1  0  0  0  0
 11 19  1  0  0  0  0
 11 20  1  0  0  0  0
 12 21  1  0  0  0  0
 12 13  1  0  0  0  0
 12 38  1  0  0  0  0
 12 39  1  0  0  0  0
 13  2  1  0  0  0  0
 13 14  1  0  0  0  0
 13 40  1  6  0  0  0
 14 22  1  0  0  0  0
 14 42  1  0  0  0  0
 14 43  1  0  0  0  0
 15 22  1  0  0  0  0
 15 16  1  0  0  0  0
 15  3  2  0  0  0  0
 16 23  1  0  0  0  0
 16 45  1  0  0  0  0
 16 46  1  0  0  0  0
 17 18  1  0  0  0  0
 17 47  1  0  0  0  0
 17 24  2  0  0  0  0
 18 48  1  0  0  0  0
 18 25  2  0  0  0  0
 21 37  1  0  0  0  0
 22 44  1  0  0  0  0
 23 24  1  0  0  0  0
 23 25  1  0  0  0  0
M  END
>  <score>
0.44742327928543091

$$$$
PV-003814949325
 OpenBabel08202115463D

 53 55  0  0  0  0  0  0  0  0999 V2000
    5.7500    2.9796    2.7048 C   0  0  0  0  0  0  0  0  0  0  0  0
    5.4656    1.4898    2.6046 C   0  0  0  0  0  0  0  0  0  0  0  0
    6.7171    0.6810    2.3043 C   0  0  0  0  0  0  0  0  0  0  0  0
    3.2199    0.9986    2.0342 C   0  0  0  0  0  0  0  0  0  0  0  0
    2.9241    2.2709    2.8517 C   0  0  0  0  0  0  0  0  0  0  0  0
    3.1909   -0.2520    2.9393 C   0  0  0  0  0  0  0  0  0  0  0  0
    2.2770    0.8783    0.8584 C   0  0  0  0  0  0  0  0  0  0  0  0
   -0.0109    1.0975   -0.0213 C   0  0  2  0  0  0  0  0  0  0  0  0
   -1.0810    0.9945   -1.1099 C   0  0  2  0  0  0  0  0  0  0  0  0
   -2.4935    1.5321   -0.7950 C   0  0  0  0  0  0  0  0  0  0  0  0
   -4.0407   -0.1413   -1.9262 C   0  0  0  0  0  0  0  0  0  0  0  0
   -4.1514   -1.5206   -2.5354 C   0  0  1  0  0  0  0  0  0  0  0  0
   -4.9933   -2.3856   -1.6355 C   0  0  0  0  0  0  0  0  0  0  0  0
   -5.2744   -3.7218   -2.3009 C   0  0  0  0  0  0  0  0  0  0  0  0
   -6.0586   -3.4615   -3.5778 C   0  0  0  0  0  0  0  0  0  0  0  0
   -5.4017   -2.4125   -4.4702 C   0  0  0  0  0  0  0  0  0  0  0  0
   -1.5548   -0.4930   -1.5137 C   0  0  0  0  0  0  0  0  0  0  0  0
   -0.8846   -0.2003   -0.1541 C   0  0  1  0  0  0  0  0  0  0  0  0
    4.5557    1.1809    1.5473 O   0  0  0  0  0  0  0  0  0  0  0  0
    2.6807    0.4938   -0.2360 O   0  0  0  0  0  0  0  0  0  0  0  0
   -5.0219    0.5974   -1.8544 O   0  0  0  0  0  0  0  0  0  0  0  0
   -5.4748   -2.4875   -5.6677 O   0  0  0  0  0  0  0  0  0  0  0  0
   -4.7391   -1.4026   -3.8811 O   0  0  0  0  0  0  0  0  0  0  0  0
    0.9884    1.2037    1.0470 N   0  0  0  0  0  0  0  0  0  0  0  0
   -2.8389    0.2525   -1.4662 N   0  0  0  0  0  0  0  0  0  0  0  0
    6.2343    3.3118    1.8104 H   0  0  0  0  0  0  0  0  0  0  0  0
    6.3864    3.1653    3.5447 H   0  0  0  0  0  0  0  0  0  0  0  0
    4.8295    3.5105    2.8299 H   0  0  0  0  0  0  0  0  0  0  0  0
    5.0618    1.1573    3.5380 H   0  0  0  0  0  0  0  0  0  0  0  0
    7.4154    0.7920    3.1073 H   0  0  0  0  0  0  0  0  0  0  0  0
    7.1596    1.0331    1.3959 H   0  0  0  0  0  0  0  0  0  0  0  0
    6.4571   -0.3515    2.1981 H   0  0  0  0  0  0  0  0  0  0  0  0
    3.5890    2.3204    3.6886 H   0  0  0  0  0  0  0  0  0  0  0  0
    1.9130    2.2432    3.2009 H   0  0  0  0  0  0  0  0  0  0  0  0
    3.0648    3.1327    2.2332 H   0  0  0  0  0  0  0  0  0  0  0  0
    3.3977    0.0333    3.9496 H   0  0  0  0  0  0  0  0  0  0  0  0
    3.9312   -0.9495    2.6072 H   0  0  0  0  0  0  0  0  0  0  0  0
    2.2236   -0.7065    2.8882 H   0  0  0  0  0  0  0  0  0  0  0  0
    0.7055    1.5235    1.9291 H   0  0  0  0  0  0  0  0  0  0  0  0
    0.3501    1.5923   -0.8986 H   0  0  0  0  0  0  0  0  0  0  0  0
   -0.7122    0.9478   -2.1143 H   0  0  0  0  0  0  0  0  0  0  0  0
   -3.3672    1.9873   -0.3774 H   0  0  0  0  0  0  0  0  0  0  0  0
   -2.0335    2.2083   -1.4850 H   0  0  0  0  0  0  0  0  0  0  0  0
   -3.1764   -1.9533   -2.6195 H   0  0  0  0  0  0  0  0  0  0  0  0
   -4.4711   -2.5519   -0.7165 H   0  0  0  0  0  0  0  0  0  0  0  0
   -5.9199   -1.8894   -1.4350 H   0  0  0  0  0  0  0  0  0  0  0  0
   -4.3519   -4.2104   -2.5358 H   0  0  0  0  0  0  0  0  0  0  0  0
   -5.8486   -4.3402   -1.6430 H   0  0  0  0  0  0  0  0  0  0  0  0
   -6.1342   -4.3775   -4.1255 H   0  0  0  0  0  0  0  0  0  0  0  0
   -7.0382   -3.1211   -3.3141 H   0  0  0  0  0  0  0  0  0  0  0  0
   -1.7311   -1.5420   -1.6298 H   0  0  0  0  0  0  0  0  0  0  0  0
   -0.9439   -0.1422   -2.3191 H   0  0  0  0  0  0  0  0  0  0  0  0
   -0.7431   -0.9960    0.5474 H   0  0  0  0  0  0  0  0  0  0  0  0
  1  2  1  0  0  0  0
  1 26  1  0  0  0  0
  1 27  1  0  0  0  0
  1 28  1  0  0  0  0
  2  3  1  0  0  0  0
  2 19  1  0  0  0  0
  2 29  1  0  0  0  0
  3 30  1  0  0  0  0
  3 31  1  0  0  0  0
  3 32  1  0  0  0  0
  4 19  1  0  0  0  0
  4  5  1  0  0  0  0
  4  6  1  0  0  0  0
  4  7  1  0  0  0  0
  5 33  1  0  0  0  0
  5 34  1  0  0  0  0
  5 35  1  0  0  0  0
  6 36  1  0  0  0  0
  6 37  1  0  0  0  0
  6 38  1  0  0  0  0
  7 24  1  0  0  0  0
  7 20  2  0  0  0  0
  8 24  1  0  0  0  0
  8  9  1  0  0  0  0
  8 18  1  0  0  0  0
  8 40  1  6  0  0  0
  9 10  1  0  0  0  0
  9 18  1  0  0  0  0
  9 41  1  6  0  0  0
 10 25  1  0  0  0  0
 10 42  1  0  0  0  0
 10 43  1  0  0  0  0
 11 25  1  0  0  0  0
 11 12  1  0  0  0  0
 11 21  2  0  0  0  0
 12 13  1  0  0  0  0
 12 23  1  0  0  0  0
 12 44  1  6  0  0  0
 13 14  1  0  0  0  0
 13 45  1  0  0  0  0
 13 46  1  0  0  0  0
 14 15  1  0  0  0  0
 14 47  1  0  0  0  0
 14 48  1  0  0  0  0
 15 16  1  0  0  0  0
 15 49  1  0  0  0  0
 15 50  1  0  0  0  0
 16 23  1  0  0  0  0
 16 22  2  0  0  0  0
 17 25  1  0  0  0  0
 17 18  1  0  0  0  0
 17 51  1  0  0  0  0
 17 52  1  0  0  0  0
 18 53  1  1  0  0  0
 24 39  1  0  0  0  0
M  END
>  <score>
0.44750577211380005

$$$$
Z4352055799
 OpenBabel08202115463D

 39 40  0  0  0  0  0  0  0  0999 V2000
   -5.4011   -4.4378   -3.4162 C   0  0  0  0  0  0  0  0  0  0  0  0
   -5.8299   -3.0354   -3.2522 C   0  0  0  0  0  0  0  0  0  0  0  0
   -5.0449   -0.9581   -2.3907 C   0  0  0  0  0  0  0  0  0  0  0  0
   -3.9231   -0.3154   -1.6956 C   0  0  0  0  0  0  0  0  0  0  0  0
   -2.3329    1.1414   -0.7094 C   0  0  0  0  0  0  0  0  0  0  0  0
   -1.6299    2.3265   -0.0959 C   0  0  0  0  0  0  0  0  0  0  0  0
    0.6484    1.5471    0.3666 C   0  0  0  0  0  0  0  0  0  0  0  0
    2.1124    1.6924    0.0311 C   0  0  0  0  0  0  0  0  0  0  0  0
    3.0452    0.9658    0.9666 C   0  0  0  0  0  0  0  0  0  0  0  0
    5.0098    0.9594    3.8852 C   0  0  0  0  0  0  0  0  0  0  0  0
    6.4497    1.4232    3.5968 C   0  0  0  0  0  0  0  0  0  0  0  0
    4.3481   -0.5278    1.9353 C   0  0  0  0  0  0  0  0  0  0  0  0
    3.5600   -0.3301    0.8265 C   0  0  0  0  0  0  0  0  0  0  0  0
   -4.8388   -2.2894   -2.5284 O   0  0  0  0  0  0  0  0  0  0  0  0
   -6.0404   -0.4227   -2.8051 O   0  0  0  0  0  0  0  0  0  0  0  0
    0.2707    0.7728    1.2304 O   0  0  0  0  0  0  0  0  0  0  0  0
   -2.9787   -0.9619   -1.0837 N   0  0  0  0  0  0  0  0  0  0  0  0
   -2.0464   -0.1085   -0.5003 N   0  0  0  0  0  0  0  0  0  0  0  0
   -0.1876    2.3143   -0.3387 N   0  0  0  0  0  0  0  0  0  0  0  0
    3.4887    1.5423    2.0876 N   0  0  0  0  0  0  0  0  0  0  0  0
    4.2815    0.6073    2.6710 N   0  0  0  0  0  0  0  0  0  0  0  0
    6.4441    2.5060    2.8387 F   0  0  0  0  0  0  0  0  0  0  0  0
    7.1234    0.4755    2.9683 F   0  0  0  0  0  0  0  0  0  0  0  0
    7.0790    1.7059    4.7243 F   0  0  0  0  0  0  0  0  0  0  0  0
   -3.7705    1.4001   -1.6375 S   0  0  0  0  0  0  0  0  0  0  0  0
   -6.1669   -4.9888   -3.9209 H   0  0  0  0  0  0  0  0  0  0  0  0
   -5.2252   -4.8715   -2.4540 H   0  0  0  0  0  0  0  0  0  0  0  0
   -4.5001   -4.4699   -3.9925 H   0  0  0  0  0  0  0  0  0  0  0  0
   -6.7535   -3.0102   -2.7125 H   0  0  0  0  0  0  0  0  0  0  0  0
   -5.9680   -2.5941   -4.2171 H   0  0  0  0  0  0  0  0  0  0  0  0
   -1.7993    2.3158    0.9606 H   0  0  0  0  0  0  0  0  0  0  0  0
   -2.0399    3.2219   -0.5143 H   0  0  0  0  0  0  0  0  0  0  0  0
    0.1783    2.8889   -1.0433 H   0  0  0  0  0  0  0  0  0  0  0  0
    2.3587    2.7333    0.0561 H   0  0  0  0  0  0  0  0  0  0  0  0
    2.2677    1.3122   -0.9569 H   0  0  0  0  0  0  0  0  0  0  0  0
    5.0473    0.1015    4.5235 H   0  0  0  0  0  0  0  0  0  0  0  0
    4.4875    1.7508    4.3810 H   0  0  0  0  0  0  0  0  0  0  0  0
    4.8911   -1.3845    2.1651 H   0  0  0  0  0  0  0  0  0  0  0  0
    3.3836   -0.9990    0.0499 H   0  0  0  0  0  0  0  0  0  0  0  0
  1  2  1  0  0  0  0
  1 26  1  0  0  0  0
  1 27  1  0  0  0  0
  1 28  1  0  0  0  0
  2 14  1  0  0  0  0
  2 29  1  0  0  0  0
  2 30  1  0  0  0  0
  3 14  1  0  0  0  0
  3  4  1  0  0  0  0
  3 15  2  0  0  0  0
  4 25  1  0  0  0  0
  4 17  2  0  0  0  0
  5  6  1  0  0  0  0
  5 25  1  0  0  0  0
  5 18  2  0  0  0  0
  6 19  1  0  0  0  0
  6 31  1  0  0  0  0
  6 32  1  0  0  0  0
  7 19  1  0  0  0  0
  7  8  1  0  0  0  0
  7 16  2  0  0  0  0
  8  9  1  0  0  0  0
  8 34  1  0  0  0  0
  8 35  1  0  0  0  0
  9 13  1  0  0  0  0
  9 20  2  0  0  0  0
 10 21  1  0  0  0  0
 10 11  1  0  0  0  0
 10 36  1  0  0  0  0
 10 37  1  0  0  0  0
 11 22  1  0  0  0  0
 11 23  1  0  0  0  0
 11 24  1  0  0  0  0
 12 21  1  0  0  0  0
 12 38  1  0  0  0  0
 12 13  2  0  0  0  0
 13 39  1  0  0  0  0
 17 18  1  0  0  0  0
 19 33  1  0  0  0  0
 20 21  1  0  0  0  0
M  END
>  <score>
0.44750696420669556

$$$$
Z4459399125
 OpenBabel08202115463D

 48 51  0  0  0  0  0  0  0  0999 V2000
   -3.1696    0.6865   -0.2948 O   0  0  0  0  0  0  0  0  0  0  0  0
   -1.0733   -0.0947   -0.3062 O   0  0  0  0  0  0  0  0  0  0  0  0
   -5.4335   -3.0866   -4.4528 O   0  0  0  0  0  0  0  0  0  0  0  0
   -2.3788   -0.1433   -0.6628 C   0  0  0  0  0  0  0  0  0  0  0  0
   -0.6536    1.1414    0.3047 C   0  0  0  0  0  0  0  0  0  0  0  0
    0.8045    1.0782    0.6591 C   0  0  0  0  0  0  0  0  0  0  0  0
    1.4837    1.8787    1.5465 C   0  0  0  0  0  0  0  0  0  0  0  0
    3.9651    1.9880    2.1983 C   0  0  0  0  0  0  0  0  0  0  0  0
    4.0179    1.4977    3.6523 C   0  0  0  0  0  0  0  0  0  0  0  0
    5.2973    1.9896    4.3400 C   0  0  0  0  0  0  0  0  0  0  0  0
    6.5817    1.6051    3.6032 C   0  0  0  0  0  0  0  0  0  0  0  0
    6.5195    2.0087    2.0998 C   0  0  0  0  0  0  0  0  0  0  0  0
    5.2192    1.4862    1.4692 C   0  0  0  0  0  0  0  0  0  0  0  0
    1.7642    0.1897    0.1553 C   0  0  0  0  0  0  0  0  0  0  0  0
   -2.6551   -1.3102   -1.5242 C   0  0  0  0  0  0  0  0  0  0  0  0
   -1.7496   -2.1680   -2.0701 C   0  0  0  0  0  0  0  0  0  0  0  0
   -4.0742   -2.6157   -2.5728 C   0  0  0  0  0  0  0  0  0  0  0  0
   -5.3810   -3.1504   -3.0554 C   0  0  1  0  0  0  0  0  0  0  0  0
   -6.5315   -2.2970   -2.4985 C   0  0  0  0  0  0  0  0  0  0  0  0
   -7.4412   -2.1169   -3.7211 C   0  0  0  0  0  0  0  0  0  0  0  0
   -6.4799   -2.1653   -4.8865 C   0  0  0  0  0  0  0  0  0  0  0  0
    2.7720    1.4612    1.5444 N   0  0  0  0  0  0  0  0  0  0  0  0
    2.9638    0.4169    0.6983 N   0  0  0  0  0  0  0  0  0  0  0  0
   -3.9707   -1.5637   -1.8103 N   0  0  0  0  0  0  0  0  0  0  0  0
   -2.5707   -3.3584   -2.9917 S   0  0  0  0  0  0  0  0  0  0  0  0
   -1.2259    1.3082    1.1933 H   0  0  0  0  0  0  0  0  0  0  0  0
   -0.8156    1.9468   -0.3809 H   0  0  0  0  0  0  0  0  0  0  0  0
    1.0848    2.6557    2.1110 H   0  0  0  0  0  0  0  0  0  0  0  0
    3.9402    3.0576    2.1789 H   0  0  0  0  0  0  0  0  0  0  0  0
    3.1672    1.8736    4.1814 H   0  0  0  0  0  0  0  0  0  0  0  0
    4.0014    0.4279    3.6636 H   0  0  0  0  0  0  0  0  0  0  0  0
    5.3342    1.5697    5.3235 H   0  0  0  0  0  0  0  0  0  0  0  0
    5.2545    3.0565    4.4085 H   0  0  0  0  0  0  0  0  0  0  0  0
    6.7192    0.5463    3.6735 H   0  0  0  0  0  0  0  0  0  0  0  0
    7.4090    2.1040    4.0632 H   0  0  0  0  0  0  0  0  0  0  0  0
    7.3574    1.5872    1.5848 H   0  0  0  0  0  0  0  0  0  0  0  0
    6.5495    3.0752    2.0178 H   0  0  0  0  0  0  0  0  0  0  0  0
    5.2288    0.4167    1.5012 H   0  0  0  0  0  0  0  0  0  0  0  0
    5.1770    1.8127    0.4512 H   0  0  0  0  0  0  0  0  0  0  0  0
    1.5683   -0.5499   -0.5492 H   0  0  0  0  0  0  0  0  0  0  0  0
   -0.7185   -2.1101   -1.9470 H   0  0  0  0  0  0  0  0  0  0  0  0
   -5.4925   -4.1648   -2.7337 H   0  0  0  0  0  0  0  0  0  0  0  0
   -6.1741   -1.3537   -2.1415 H   0  0  0  0  0  0  0  0  0  0  0  0
   -7.0429   -2.8071   -1.7092 H   0  0  0  0  0  0  0  0  0  0  0  0
   -8.1584   -2.9084   -3.7840 H   0  0  0  0  0  0  0  0  0  0  0  0
   -7.9498   -1.1762   -3.6839 H   0  0  0  0  0  0  0  0  0  0  0  0
   -6.9677   -2.5326   -5.7652 H   0  0  0  0  0  0  0  0  0  0  0  0
   -6.0731   -1.1953   -5.0828 H   0  0  0  0  0  0  0  0  0  0  0  0
  4  2  1  0  0  0  0
  4 15  1  0  0  0  0
  4  1  2  0  0  0  0
  5  2  1  0  0  0  0
  5  6  1  0  0  0  0
  5 26  1  0  0  0  0
  5 27  1  0  0  0  0
  6 14  1  0  0  0  0
  6  7  2  0  0  0  0
  7 22  1  0  0  0  0
  7 28  1  0  0  0  0
  8 22  1  0  0  0  0
  8  9  1  0  0  0  0
  8 13  1  0  0  0  0
  8 29  1  0  0  0  0
  9 10  1  0  0  0  0
  9 30  1  0  0  0  0
  9 31  1  0  0  0  0
 10 11  1  0  0  0  0
 10 32  1  0  0  0  0
 10 33  1  0  0  0  0
 11 12  1  0  0  0  0
 11 34  1  0  0  0  0
 11 35  1  0  0  0  0
 12 13  1  0  0  0  0
 12 36  1  0  0  0  0
 12 37  1  0  0  0  0
 13 38  1  0  0  0  0
 13 39  1  0  0  0  0
 14 40  1  0  0  0  0
 14 23  2  0  0  0  0
 15 24  1  0  0  0  0
 15 16  2  0  0  0  0
 16 25  1  0  0  0  0
 16 41  1  0  0  0  0
 17 25  1  0  0  0  0
 17 18  1  0  0  0  0
 17 24  2  0  0  0  0
 18 19  1  0  0  0  0
 18  3  1  0  0  0  0
 18 42  1  1  0  0  0
 19 20  1  0  0  0  0
 19 43  1  0  0  0  0
 19 44  1  0  0  0  0
 20 21  1  0  0  0  0
 20 45  1  0  0  0  0
 20 46  1  0  0  0  0
 21  3  1  0  0  0  0
 21 47  1  0  0  0  0
 21 48  1  0  0  0  0
 22 23  1  0  0  0  0
M  END
>  <score>
0.44760215282440186

$$$$
PV-004014493196
 OpenBabel08202115463D

 59 62  0  0  0  0  0  0  0  0999 V2000
    6.3653    0.8408    2.0145 C   0  0  0  0  0  0  0  0  0  0  0  0
    6.5942    1.5650    4.3200 C   0  0  0  0  0  0  0  0  0  0  0  0
    6.2833    3.0035    3.9380 C   0  0  0  0  0  0  0  0  0  0  0  0
    4.8090    3.3151    3.8828 C   0  0  0  0  0  0  0  0  0  0  0  0
    4.1033    2.4083    2.9267 C   0  0  0  0  0  0  0  0  0  0  0  0
    4.2715    0.9243    3.2251 C   0  0  1  0  0  0  0  0  0  0  0  0
    3.6988    0.0974    2.0981 C   0  0  0  0  0  0  0  0  0  0  0  0
    2.2245    0.2205    1.8243 C   0  0  0  0  0  0  0  0  0  0  0  0
    0.3417   -0.2307    0.3214 C   0  0  0  0  0  0  0  0  0  0  0  0
   -0.1493    1.0891   -0.2686 C   0  0  1  0  0  0  0  0  0  0  0  0
    0.1488    1.4287   -1.6954 C   0  0  0  0  0  0  0  0  0  0  0  0
   -1.2551    1.1083   -1.2767 C   0  0  1  0  0  0  0  0  0  0  0  0
   -3.3088   -0.1791   -1.6008 C   0  0  0  0  0  0  0  0  0  0  0  0
   -3.9231   -1.4320   -2.1940 C   0  0  2  0  0  0  0  0  0  0  0  0
   -4.7242   -1.2043   -3.4887 C   0  0  0  0  0  0  0  0  0  0  0  0
   -5.7245   -2.2264   -2.9476 C   0  0  1  0  0  0  0  0  0  0  0  0
   -7.2084   -2.1565   -3.3206 C   0  0  0  0  0  0  0  0  0  0  0  0
   -6.9154   -3.2794   -4.3322 C   0  0  1  0  0  0  0  0  0  0  0  0
   -5.7224   -3.6733   -3.4423 C   0  0  0  0  0  0  0  0  0  0  0  0
   -5.2455   -1.8716   -1.5395 C   0  0  0  0  0  0  0  0  0  0  0  0
    5.7823    0.6736    3.3527 N   0  0  0  0  0  0  0  0  0  0  0  0
    1.7569   -0.2562    0.6597 N   0  0  0  0  0  0  0  0  0  0  0  0
   -1.9810   -0.0767   -1.7087 N   0  0  0  0  0  0  0  0  0  0  0  0
    1.4717    0.7431    2.6452 O   0  0  0  0  0  0  0  0  0  0  0  0
   -4.0049    0.6780   -1.0582 O   0  0  0  0  0  0  0  0  0  0  0  0
   -7.9372   -4.2723   -4.4331 O   0  0  0  0  0  0  0  0  0  0  0  0
    5.8979    0.1604    1.3337 H   0  0  0  0  0  0  0  0  0  0  0  0
    7.4153    0.6391    2.0554 H   0  0  0  0  0  0  0  0  0  0  0  0
    6.2073    1.8448    1.6798 H   0  0  0  0  0  0  0  0  0  0  0  0
    7.6409    1.3711    4.2118 H   0  0  0  0  0  0  0  0  0  0  0  0
    6.2991    1.3784    5.3314 H   0  0  0  0  0  0  0  0  0  0  0  0
    6.7374    3.6495    4.6600 H   0  0  0  0  0  0  0  0  0  0  0  0
    6.7044    3.1944    2.9730 H   0  0  0  0  0  0  0  0  0  0  0  0
    4.3886    3.1896    4.8586 H   0  0  0  0  0  0  0  0  0  0  0  0
    4.6778    4.3284    3.5649 H   0  0  0  0  0  0  0  0  0  0  0  0
    4.4832    2.5970    1.9444 H   0  0  0  0  0  0  0  0  0  0  0  0
    3.0589    2.6390    2.9561 H   0  0  0  0  0  0  0  0  0  0  0  0
    3.7766    0.6728    4.1398 H   0  0  0  0  0  0  0  0  0  0  0  0
    3.8982   -0.9299    2.3213 H   0  0  0  0  0  0  0  0  0  0  0  0
    4.2149    0.3751    1.2029 H   0  0  0  0  0  0  0  0  0  0  0  0
    2.3906   -0.6344    0.0149 H   0  0  0  0  0  0  0  0  0  0  0  0
   -0.2175   -0.4259    1.2125 H   0  0  0  0  0  0  0  0  0  0  0  0
    0.1560   -1.0049   -0.3935 H   0  0  0  0  0  0  0  0  0  0  0  0
   -0.1355    1.9159    0.4104 H   0  0  0  0  0  0  0  0  0  0  0  0
    0.6951    0.7406   -2.3062 H   0  0  0  0  0  0  0  0  0  0  0  0
    0.4118    2.4307   -1.9632 H   0  0  0  0  0  0  0  0  0  0  0  0
   -1.8732    1.9783   -1.1988 H   0  0  0  0  0  0  0  0  0  0  0  0
   -1.4785   -0.8256   -2.0921 H   0  0  0  0  0  0  0  0  0  0  0  0
   -3.1795   -2.1988   -2.2576 H   0  0  0  0  0  0  0  0  0  0  0  0
   -5.1135   -0.2147   -3.6073 H   0  0  0  0  0  0  0  0  0  0  0  0
   -4.2212   -1.5001   -4.3856 H   0  0  0  0  0  0  0  0  0  0  0  0
   -7.5188   -1.2297   -3.7559 H   0  0  0  0  0  0  0  0  0  0  0  0
   -7.8822   -2.4252   -2.5341 H   0  0  0  0  0  0  0  0  0  0  0  0
   -6.6492   -2.9400   -5.3114 H   0  0  0  0  0  0  0  0  0  0  0  0
   -8.7985   -3.8540   -4.3639 H   0  0  0  0  0  0  0  0  0  0  0  0
   -5.9437   -4.4041   -2.6928 H   0  0  0  0  0  0  0  0  0  0  0  0
   -4.8415   -3.9639   -3.9756 H   0  0  0  0  0  0  0  0  0  0  0  0
   -5.1609   -2.7031   -0.8715 H   0  0  0  0  0  0  0  0  0  0  0  0
   -5.7938   -1.0855   -1.0637 H   0  0  0  0  0  0  0  0  0  0  0  0
  1 21  1  0  0  0  0
  1 27  1  0  0  0  0
  1 28  1  0  0  0  0
  1 29  1  0  0  0  0
  2 21  1  0  0  0  0
  2  3  1  0  0  0  0
  2 30  1  0  0  0  0
  2 31  1  0  0  0  0
  3  4  1  0  0  0  0
  3 32  1  0  0  0  0
  3 33  1  0  0  0  0
  4  5  1  0  0  0  0
  4 34  1  0  0  0  0
  4 35  1  0  0  0  0
  5  6  1  0  0  0  0
  5 36  1  0  0  0  0
  5 37  1  0  0  0  0
  6 21  1  0  0  0  0
  6  7  1  0  0  0  0
  6 38  1  1  0  0  0
  7  8  1  0  0  0  0
  7 39  1  0  0  0  0
  7 40  1  0  0  0  0
  8 22  1  0  0  0  0
  8 24  2  0  0  0  0
  9 22  1  0  0  0  0
  9 10  1  0  0  0  0
  9 42  1  0  0  0  0
  9 43  1  0  0  0  0
 10 11  1  0  0  0  0
 10 12  1  0  0  0  0
 10 44  1  1  0  0  0
 11 12  1  0  0  0  0
 11 45  1  0  0  0  0
 11 46  1  0  0  0  0
 12 23  1  0  0  0  0
 12 47  1  1  0  0  0
 13 23  1  0  0  0  0
 13 14  1  0  0  0  0
 13 25  2  0  0  0  0
 14 15  1  0  0  0  0
 14 20  1  0  0  0  0
 14 49  1  6  0  0  0
 15 50  1  0  0  0  0
 15 51  1  0  0  0  0
 16 15  1  6  0  0  0
 16 17  1  0  0  0  0
 16 19  1  0  0  0  0
 16 20  1  0  0  0  0
 17 18  1  0  0  0  0
 17 52  1  0  0  0  0
 17 53  1  0  0  0  0
 18 26  1  0  0  0  0
 18 19  1  0  0  0  0
 18 54  1  6  0  0  0
 19 56  1  0  0  0  0
 19 57  1  0  0  0  0
 20 58  1  0  0  0  0
 20 59  1  0  0  0  0
 22 41  1  0  0  0  0
 23 48  1  0  0  0  0
 26 55  1  0  0  0  0
M  END
>  <score>
0.44770336151123047

$$$$
PV-003036187240
 OpenBabel08202115463D

 43 45  0  0  0  0  0  0  0  0999 V2000
    0.8897   -1.1269    0.6500 C   0  0  0  0  0  0  0  0  0  0  0  0
    0.1609    0.0010   -0.0415 C   0  0  0  0  0  0  0  0  0  0  0  0
    0.5468    1.2889   -0.0438 C   0  0  0  0  0  0  0  0  0  0  0  0
    2.5534    1.7760    1.3666 C   0  0  0  0  0  0  0  0  0  0  0  0
    4.3762    2.7252    2.6449 C   0  0  0  0  0  0  0  0  0  0  0  0
    5.1486    4.0246    2.4854 C   0  0  0  0  0  0  0  0  0  0  0  0
    5.2556    1.5338    2.3414 C   0  0  0  0  0  0  0  0  0  0  0  0
    3.7308    2.6439    4.0134 C   0  0  0  0  0  0  0  0  0  0  0  0
   -1.0338   -0.0283   -0.8079 C   0  0  0  0  0  0  0  0  0  0  0  0
   -1.8650   -1.1970   -1.1202 C   0  0  0  0  0  0  0  0  0  0  0  0
   -3.5374   -2.1342   -2.0426 C   0  0  0  0  0  0  0  0  0  0  0  0
   -4.7476   -2.1838   -2.8491 C   0  0  0  0  0  0  0  0  0  0  0  0
   -6.4066   -1.5929   -4.0547 C   0  0  0  0  0  0  0  0  0  0  0  0
   -6.4991   -2.9444   -3.9107 C   0  0  0  0  0  0  0  0  0  0  0  0
   -5.0068   -4.6617   -2.7580 C   0  0  0  0  0  0  0  0  0  0  0  0
    1.5809    2.0881    0.4715 N   0  0  0  0  0  0  0  0  0  0  0  0
   -1.3504    1.1699   -1.2430 N   0  0  0  0  0  0  0  0  0  0  0  0
   -1.7975   -2.4451   -0.8095 N   0  0  0  0  0  0  0  0  0  0  0  0
   -2.9056   -3.0637   -1.4131 N   0  0  0  0  0  0  0  0  0  0  0  0
   -5.3036   -1.1152   -3.3896 N   0  0  0  0  0  0  0  0  0  0  0  0
   -5.4308   -3.3123   -3.1331 N   0  0  0  0  0  0  0  0  0  0  0  0
    2.6991    0.6783    1.8788 O   0  0  0  0  0  0  0  0  0  0  0  0
    3.3320    2.8582    1.6038 O   0  0  0  0  0  0  0  0  0  0  0  0
   -0.3359    2.0263   -0.7629 O   0  0  0  0  0  0  0  0  0  0  0  0
   -2.9446   -0.9139   -1.9084 O   0  0  0  0  0  0  0  0  0  0  0  0
    0.4040   -1.3509    1.5767 H   0  0  0  0  0  0  0  0  0  0  0  0
    1.9014   -0.8343    0.8394 H   0  0  0  0  0  0  0  0  0  0  0  0
    0.8801   -1.9944    0.0237 H   0  0  0  0  0  0  0  0  0  0  0  0
    1.6039    3.0082    0.1348 H   0  0  0  0  0  0  0  0  0  0  0  0
    4.4756    4.8525    2.5674 H   0  0  0  0  0  0  0  0  0  0  0  0
    5.6209    4.0430    1.5254 H   0  0  0  0  0  0  0  0  0  0  0  0
    5.8929    4.0931    3.2510 H   0  0  0  0  0  0  0  0  0  0  0  0
    5.9907    1.4271    3.1116 H   0  0  0  0  0  0  0  0  0  0  0  0
    5.7438    1.6815    1.4008 H   0  0  0  0  0  0  0  0  0  0  0  0
    4.6549    0.6495    2.2970 H   0  0  0  0  0  0  0  0  0  0  0  0
    3.2088    3.5555    4.2169 H   0  0  0  0  0  0  0  0  0  0  0  0
    4.4867    2.4927    4.7555 H   0  0  0  0  0  0  0  0  0  0  0  0
    3.0412    1.8260    4.0342 H   0  0  0  0  0  0  0  0  0  0  0  0
   -7.0762   -1.0059   -4.5921 H   0  0  0  0  0  0  0  0  0  0  0  0
   -7.2295   -3.5687   -4.3086 H   0  0  0  0  0  0  0  0  0  0  0  0
   -3.9409   -4.7314   -2.8202 H   0  0  0  0  0  0  0  0  0  0  0  0
   -5.4499   -5.3724   -3.4239 H   0  0  0  0  0  0  0  0  0  0  0  0
   -5.3196   -4.8679   -1.7558 H   0  0  0  0  0  0  0  0  0  0  0  0
  1  2  1  0  0  0  0
  1 26  1  0  0  0  0
  1 27  1  0  0  0  0
  1 28  1  0  0  0  0
  2  9  1  0  0  0  0
  2  3  2  0  0  0  0
  3 16  1  0  0  0  0
  3 24  1  0  0  0  0
  4 16  1  0  0  0  0
  4 23  1  0  0  0  0
  4 22  2  0  0  0  0
  5 23  1  0  0  0  0
  5  6  1  0  0  0  0
  5  7  1  0  0  0  0
  5  8  1  0  0  0  0
  6 30  1  0  0  0  0
  6 31  1  0  0  0  0
  6 32  1  0  0  0  0
  7 33  1  0  0  0  0
  7 34  1  0  0  0  0
  7 35  1  0  0  0  0
  8 36  1  0  0  0  0
  8 37  1  0  0  0  0
  8 38  1  0  0  0  0
  9 10  1  0  0  0  0
  9 17  2  0  0  0  0
 10 25  1  0  0  0  0
 10 18  2  0  0  0  0
 11 12  1  0  0  0  0
 11 25  1  0  0  0  0
 11 19  2  0  0  0  0
 12 21  1  0  0  0  0
 12 20  2  0  0  0  0
 13 20  1  0  0  0  0
 13 39  1  0  0  0  0
 13 14  2  0  0  0  0
 14 21  1  0  0  0  0
 14 40  1  0  0  0  0
 15 21  1  0  0  0  0
 15 41  1  0  0  0  0
 15 42  1  0  0  0  0
 15 43  1  0  0  0  0
 16 29  1  0  0  0  0
 17 24  1  0  0  0  0
 18 19  1  0  0  0  0
M  END
>  <score>
0.44770526885986328

$$$$
PV-003597919076
 OpenBabel08202115463D

 57 59  0  0  0  0  0  0  0  0999 V2000
    4.6082    2.0817    1.9424 C   0  0  0  0  0  0  0  0  0  0  0  0
    3.6086    1.6961    3.0206 C   0  0  1  0  0  0  0  0  0  0  0  0
    2.6463    0.6214    2.5239 C   0  0  0  0  0  0  0  0  0  0  0  0
    1.7731    1.0227    1.3610 C   0  0  0  0  0  0  0  0  0  0  0  0
   -0.0636    0.3781   -0.2006 C   0  0  1  0  0  0  0  0  0  0  0  0
   -0.2591    1.7137   -0.9361 C   0  0  0  0  0  0  0  0  0  0  0  0
   -1.2404    0.6781   -1.5635 C   0  0  2  0  0  0  0  0  0  0  0  0
   -2.2037    0.9249   -2.6803 C   0  0  0  0  0  0  0  0  0  0  0  0
   -4.0357   -0.6989   -2.6400 C   0  0  0  0  0  0  0  0  0  0  0  0
   -4.6953   -1.8660   -3.3486 C   0  0  1  0  0  0  0  0  0  0  0  0
   -4.5875   -3.1435   -2.5320 C   0  0  0  0  0  0  0  0  0  0  0  0
   -6.1491   -1.5699   -3.6828 C   0  0  1  0  0  0  0  0  0  0  0  0
   -6.8144   -2.7117   -4.4325 C   0  0  0  0  0  0  0  0  0  0  0  0
   -1.5918    0.2155   -0.1177 C   0  0  0  0  0  0  0  0  0  0  0  0
   -0.0728   -0.3537   -1.5537 C   0  0  0  0  0  0  0  0  0  0  0  0
    4.3175    1.2678    4.2951 C   0  0  1  0  0  0  0  0  0  0  0  0
    5.1308    0.0148    4.0474 C   0  0  0  0  0  0  0  0  0  0  0  0
    6.5131    0.5464    3.7586 C   0  0  0  0  0  0  0  0  0  0  0  0
    6.5921    1.7492    4.6688 C   0  0  0  0  0  0  0  0  0  0  0  0
    1.8751    2.1374    0.8505 O   0  0  0  0  0  0  0  0  0  0  0  0
   -4.5144   -0.2234   -1.6113 O   0  0  0  0  0  0  0  0  0  0  0  0
   -6.8876   -1.3470   -2.4772 O   0  0  0  0  0  0  0  0  0  0  0  0
    5.2545    2.2793    4.7089 O   0  0  0  0  0  0  0  0  0  0  0  0
    0.8894    0.1339    0.9043 N   0  0  0  0  0  0  0  0  0  0  0  0
   -2.9176   -0.2340   -3.2046 N   0  0  0  0  0  0  0  0  0  0  0  0
    5.2714    1.2619    1.7605 H   0  0  0  0  0  0  0  0  0  0  0  0
    5.1722    2.9312    2.2666 H   0  0  0  0  0  0  0  0  0  0  0  0
    4.0847    2.3233    1.0410 H   0  0  0  0  0  0  0  0  0  0  0  0
    3.0292    2.5659    3.2499 H   0  0  0  0  0  0  0  0  0  0  0  0
    2.0073    0.3488    3.3378 H   0  0  0  0  0  0  0  0  0  0  0  0
    3.2252   -0.2273    2.2246 H   0  0  0  0  0  0  0  0  0  0  0  0
    0.8701   -0.7471    1.3330 H   0  0  0  0  0  0  0  0  0  0  0  0
   -0.6796    2.5293   -0.3857 H   0  0  0  0  0  0  0  0  0  0  0  0
    0.5455    2.0705   -1.5445 H   0  0  0  0  0  0  0  0  0  0  0  0
   -1.6554    1.3599   -3.4897 H   0  0  0  0  0  0  0  0  0  0  0  0
   -2.9346    1.6225   -2.3283 H   0  0  0  0  0  0  0  0  0  0  0  0
   -2.5648   -0.6874   -3.9986 H   0  0  0  0  0  0  0  0  0  0  0  0
   -4.1753   -2.0241   -4.2703 H   0  0  0  0  0  0  0  0  0  0  0  0
   -3.6520   -3.6206   -2.7370 H   0  0  0  0  0  0  0  0  0  0  0  0
   -5.3887   -3.8025   -2.7939 H   0  0  0  0  0  0  0  0  0  0  0  0
   -4.6460   -2.9065   -1.4902 H   0  0  0  0  0  0  0  0  0  0  0  0
   -6.1853   -0.6937   -4.2958 H   0  0  0  0  0  0  0  0  0  0  0  0
   -6.6877   -3.6213   -3.8834 H   0  0  0  0  0  0  0  0  0  0  0  0
   -6.3658   -2.8130   -5.3986 H   0  0  0  0  0  0  0  0  0  0  0  0
   -7.8584   -2.5048   -4.5433 H   0  0  0  0  0  0  0  0  0  0  0  0
   -6.4301   -1.7587   -1.7405 H   0  0  0  0  0  0  0  0  0  0  0  0
   -2.1328    0.8959    0.5062 H   0  0  0  0  0  0  0  0  0  0  0  0
   -1.9823   -0.7727    0.0089 H   0  0  0  0  0  0  0  0  0  0  0  0
   -0.3258   -1.3934   -1.5568 H   0  0  0  0  0  0  0  0  0  0  0  0
    0.7485   -0.1840   -2.2182 H   0  0  0  0  0  0  0  0  0  0  0  0
    3.5948    1.0946    5.0649 H   0  0  0  0  0  0  0  0  0  0  0  0
    4.7479   -0.5308    3.2103 H   0  0  0  0  0  0  0  0  0  0  0  0
    5.1360   -0.6153    4.9122 H   0  0  0  0  0  0  0  0  0  0  0  0
    7.2646   -0.1749    4.0038 H   0  0  0  0  0  0  0  0  0  0  0  0
    6.6122    0.8305    2.7318 H   0  0  0  0  0  0  0  0  0  0  0  0
    6.9100    1.4584    5.6483 H   0  0  0  0  0  0  0  0  0  0  0  0
    7.2717    2.4749    4.2735 H   0  0  0  0  0  0  0  0  0  0  0  0
  1  2  1  0  0  0  0
  1 26  1  0  0  0  0
  1 27  1  0  0  0  0
  1 28  1  0  0  0  0
  2  3  1  0  0  0  0
  2 16  1  0  0  0  0
  2 29  1  1  0  0  0
  3  4  1  0  0  0  0
  3 30  1  0  0  0  0
  3 31  1  0  0  0  0
  4 24  1  0  0  0  0
  4 20  2  0  0  0  0
  5 24  1  1  0  0  0
  5  6  1  0  0  0  0
  5 14  1  0  0  0  0
  5 15  1  0  0  0  0
  6  7  1  0  0  0  0
  6 33  1  0  0  0  0
  6 34  1  0  0  0  0
  7  8  1  6  0  0  0
  7 14  1  0  0  0  0
  7 15  1  0  0  0  0
  8 25  1  0  0  0  0
  8 35  1  0  0  0  0
  8 36  1  0  0  0  0
  9 25  1  0  0  0  0
  9 10  1  0  0  0  0
  9 21  2  0  0  0  0
 10 11  1  0  0  0  0
 10 12  1  0  0  0  0
 10 38  1  6  0  0  0
 11 39  1  0  0  0  0
 11 40  1  0  0  0  0
 11 41  1  0  0  0  0
 12 13  1  0  0  0  0
 12 22  1  0  0  0  0
 12 42  1  6  0  0  0
 13 43  1  0  0  0  0
 13 44  1  0  0  0  0
 13 45  1  0  0  0  0
 14 47  1  0  0  0  0
 14 48  1  0  0  0  0
 15 49  1  0  0  0  0
 15 50  1  0  0  0  0
 16 17  1  0  0  0  0
 16 23  1  0  0  0  0
 16 51  1  1  0  0  0
 17 18  1  0  0  0  0
 17 52  1  0  0  0  0
 17 53  1  0  0  0  0
 18 19  1  0  0  0  0
 18 54  1  0  0  0  0
 18 55  1  0  0  0  0
 19 23  1  0  0  0  0
 19 56  1  0  0  0  0
 19 57  1  0  0  0  0
 22 46  1  0  0  0  0
 24 32  1  0  0  0  0
 25 37  1  0  0  0  0
M  END
>  <score>
0.44779908657073975

$$$$
PV-003973739327
 OpenBabel08202115463D

 55 56  0  0  0  0  0  0  0  0999 V2000
   -5.8003   -3.3978   -3.8517 C   0  0  0  0  0  0  0  0  0  0  0  0
   -5.7959   -2.1905   -2.9281 C   0  0  0  0  0  0  0  0  0  0  0  0
   -4.3934   -1.6278   -2.7847 C   0  0  1  0  0  0  0  0  0  0  0  0
   -4.3629   -0.4978   -1.7530 C   0  0  0  0  0  0  0  0  0  0  0  0
   -3.0767    0.3044   -1.7885 C   0  0  0  0  0  0  0  0  0  0  0  0
   -1.6605    1.8946   -0.5146 C   0  0  0  0  0  0  0  0  0  0  0  0
   -0.8038    1.2898    0.5908 C   0  0  1  0  0  0  0  0  0  0  0  0
   -0.2245   -0.0344    0.1094 C   0  0  0  0  0  0  0  0  0  0  0  0
    0.7527   -0.6145    1.1218 C   0  0  0  0  0  0  0  0  0  0  0  0
    3.0993    0.1318    1.3121 C   0  0  0  0  0  0  0  0  0  0  0  0
    4.0556    1.2295    1.7709 C   0  0  1  0  0  0  0  0  0  0  0  0
    4.3338    1.3094    3.2390 C   0  0  0  0  0  0  0  0  0  0  0  0
    5.3951    0.8209    2.2989 C   0  0  0  0  0  0  0  0  0  0  0  0
    6.6275    1.6835    2.0181 C   0  0  0  0  0  0  0  0  0  0  0  0
    5.8023   -0.6547    2.2992 C   0  0  0  0  0  0  0  0  0  0  0  0
    1.2633    1.6484    1.9588 C   0  0  0  0  0  0  0  0  0  0  0  0
    0.3112    2.2562    0.9446 C   0  0  0  0  0  0  0  0  0  0  0  0
   -3.4299   -2.6623   -2.3639 C   0  0  0  0  0  0  0  0  0  0  0  0
   -2.2762    0.1867   -2.7153 O   0  0  0  0  0  0  0  0  0  0  0  0
    3.5452   -0.9399    0.9108 O   0  0  0  0  0  0  0  0  0  0  0  0
    4.0115    2.5100    1.1482 O   0  0  0  0  0  0  0  0  0  0  0  0
   -2.8796    1.1366   -0.7537 N   0  0  0  0  0  0  0  0  0  0  0  0
    1.7848    0.3745    1.4558 N   0  0  0  0  0  0  0  0  0  0  0  0
   -3.6876   -3.0549   -1.1188 F   0  0  0  0  0  0  0  0  0  0  0  0
   -2.2206   -2.0505   -2.2030 F   0  0  0  0  0  0  0  0  0  0  0  0
   -5.0209   -4.0715   -3.5626 H   0  0  0  0  0  0  0  0  0  0  0  0
   -5.6379   -3.0763   -4.8593 H   0  0  0  0  0  0  0  0  0  0  0  0
   -6.7451   -3.8953   -3.7835 H   0  0  0  0  0  0  0  0  0  0  0  0
   -6.1562   -2.4847   -1.9645 H   0  0  0  0  0  0  0  0  0  0  0  0
   -6.4369   -1.4360   -3.3340 H   0  0  0  0  0  0  0  0  0  0  0  0
   -4.0821   -1.2350   -3.7301 H   0  0  0  0  0  0  0  0  0  0  0  0
   -4.4716   -0.9241   -0.7776 H   0  0  0  0  0  0  0  0  0  0  0  0
   -5.1818    0.1629   -1.9472 H   0  0  0  0  0  0  0  0  0  0  0  0
   -3.6119    1.2417   -0.1110 H   0  0  0  0  0  0  0  0  0  0  0  0
   -1.9265    2.8925   -0.2350 H   0  0  0  0  0  0  0  0  0  0  0  0
   -1.0881    1.9174   -1.4183 H   0  0  0  0  0  0  0  0  0  0  0  0
   -1.4081    1.1164    1.4566 H   0  0  0  0  0  0  0  0  0  0  0  0
    0.2877    0.1259   -0.8162 H   0  0  0  0  0  0  0  0  0  0  0  0
   -1.0239   -0.7298   -0.0405 H   0  0  0  0  0  0  0  0  0  0  0  0
    1.2179   -1.4836    0.7057 H   0  0  0  0  0  0  0  0  0  0  0  0
    0.2217   -0.8846    2.0106 H   0  0  0  0  0  0  0  0  0  0  0  0
    3.8006    2.1855    0.2696 H   0  0  0  0  0  0  0  0  0  0  0  0
    3.8589    0.6258    3.9115 H   0  0  0  0  0  0  0  0  0  0  0  0
    4.4366    2.2632    3.7129 H   0  0  0  0  0  0  0  0  0  0  0  0
    7.3512    1.5350    2.7921 H   0  0  0  0  0  0  0  0  0  0  0  0
    6.3421    2.7143    1.9900 H   0  0  0  0  0  0  0  0  0  0  0  0
    7.0509    1.4042    1.0760 H   0  0  0  0  0  0  0  0  0  0  0  0
    4.9254   -1.2673    2.3231 H   0  0  0  0  0  0  0  0  0  0  0  0
    6.4030   -0.8584    3.1610 H   0  0  0  0  0  0  0  0  0  0  0  0
    6.3633   -0.8698    1.4139 H   0  0  0  0  0  0  0  0  0  0  0  0
    0.7417    1.4796    2.8776 H   0  0  0  0  0  0  0  0  0  0  0  0
    2.0772    2.3220    2.1286 H   0  0  0  0  0  0  0  0  0  0  0  0
   -0.1163    3.1462    1.3571 H   0  0  0  0  0  0  0  0  0  0  0  0
    0.8563    2.5002    0.0568 H   0  0  0  0  0  0  0  0  0  0  0  0
   -3.3983   -3.4679   -3.0674 H   0  0  0  0  0  0  0  0  0  0  0  0
  1  2  1  0  0  0  0
  1 26  1  0  0  0  0
  1 27  1  0  0  0  0
  1 28  1  0  0  0  0
  2  3  1  0  0  0  0
  2 29  1  0  0  0  0
  2 30  1  0  0  0  0
  3  4  1  0  0  0  0
  3 18  1  0  0  0  0
  3 31  1  6  0  0  0
  4  5  1  0  0  0  0
  4 32  1  0  0  0  0
  4 33  1  0  0  0  0
  5 22  1  0  0  0  0
  5 19  2  0  0  0  0
  6 22  1  0  0  0  0
  6  7  1  0  0  0  0
  6 35  1  0  0  0  0
  6 36  1  0  0  0  0
  7  8  1  0  0  0  0
  7 17  1  0  0  0  0
  7 37  1  1  0  0  0
  8  9  1  0  0  0  0
  8 38  1  0  0  0  0
  8 39  1  0  0  0  0
  9 23  1  0  0  0  0
  9 40  1  0  0  0  0
  9 41  1  0  0  0  0
 10 23  1  0  0  0  0
 10 20  2  0  0  0  0
 11 10  1  6  0  0  0
 11 21  1  0  0  0  0
 11 12  1  0  0  0  0
 11 13  1  0  0  0  0
 12 13  1  0  0  0  0
 12 43  1  0  0  0  0
 12 44  1  0  0  0  0
 13 14  1  0  0  0  0
 13 15  1  0  0  0  0
 14 45  1  0  0  0  0
 14 46  1  0  0  0  0
 14 47  1  0  0  0  0
 15 48  1  0  0  0  0
 15 49  1  0  0  0  0
 15 50  1  0  0  0  0
 16 23  1  0  0  0  0
 16 17  1  0  0  0  0
 16 51  1  0  0  0  0
 16 52  1  0  0  0  0
 17 53  1  0  0  0  0
 17 54  1  0  0  0  0
 18 24  1  0  0  0  0
 18 25  1  0  0  0  0
 18 55  1  0  0  0  0
 21 42  1  0  0  0  0
 22 34  1  0  0  0  0
M  END
>  <score>
0.44785451889038086

$$$$
PV-003041276854
 OpenBabel08202115463D

 49 51  0  0  0  0  0  0  0  0999 V2000
   -2.1539    0.8968   -0.7067 C   0  0  0  0  0  0  0  0  0  0  0  0
   -0.9991    0.0644   -0.1737 C   0  0  1  0  0  0  0  0  0  0  0  0
   -0.9948   -1.3269   -0.7219 C   0  0  0  0  0  0  0  0  0  0  0  0
   -3.1323   -2.1368   -1.6126 C   0  0  0  0  0  0  0  0  0  0  0  0
   -4.3874   -2.9118   -1.2976 C   0  0  0  0  0  0  0  0  0  0  0  0
   -6.5051   -1.9363   -2.3137 C   0  0  0  0  0  0  0  0  0  0  0  0
   -7.2307   -2.2332   -3.4428 C   0  0  0  0  0  0  0  0  0  0  0  0
   -6.5112   -3.2491   -4.0867 C   0  0  0  0  0  0  0  0  0  0  0  0
    1.1715    1.0000    0.5888 C   0  0  0  0  0  0  0  0  0  0  0  0
    2.4363    1.6836    0.1428 C   0  0  0  0  0  0  0  0  0  0  0  0
    3.5272    1.6912    1.2206 C   0  0  1  0  0  0  0  0  0  0  0  0
    4.8870    2.3553    0.7974 C   0  0  0  0  0  0  0  0  0  0  0  0
    5.8906    1.7273    1.7998 C   0  0  0  0  0  0  0  0  0  0  0  0
    5.0112    0.8666    2.7194 C   0  0  1  0  0  0  0  0  0  0  0  0
    4.1724    1.8163    3.5646 C   0  0  0  0  0  0  0  0  0  0  0  0
    3.1456    2.3643    2.5599 C   0  0  0  0  0  0  0  0  0  0  0  0
    3.9776    0.2789    1.7324 C   0  0  0  0  0  0  0  0  0  0  0  0
   -2.2432   -2.0844   -0.6167 N   0  0  0  0  0  0  0  0  0  0  0  0
   -5.4218   -2.7489   -2.3189 N   0  0  0  0  0  0  0  0  0  0  0  0
   -5.4107   -3.5701   -3.4000 N   0  0  0  0  0  0  0  0  0  0  0  0
    0.2835    0.7277   -0.3794 N   0  0  0  0  0  0  0  0  0  0  0  0
   -3.0135   -1.5464   -2.6854 O   0  0  0  0  0  0  0  0  0  0  0  0
    0.9816    0.7167    1.7709 O   0  0  0  0  0  0  0  0  0  0  0  0
   -8.7144   -1.5082   -3.9587 Cl  0  0  0  0  0  0  0  0  0  0  0  0
   -3.0656    0.3448   -0.6120 H   0  0  0  0  0  0  0  0  0  0  0  0
   -1.9817    1.1265   -1.7374 H   0  0  0  0  0  0  0  0  0  0  0  0
   -2.2272    1.8050   -0.1457 H   0  0  0  0  0  0  0  0  0  0  0  0
   -1.1439   -0.0220    0.8829 H   0  0  0  0  0  0  0  0  0  0  0  0
   -0.2385   -1.8767   -0.2017 H   0  0  0  0  0  0  0  0  0  0  0  0
   -0.7412   -1.2645   -1.7595 H   0  0  0  0  0  0  0  0  0  0  0  0
   -2.4333   -2.5699    0.2131 H   0  0  0  0  0  0  0  0  0  0  0  0
   -4.7747   -2.5700   -0.3606 H   0  0  0  0  0  0  0  0  0  0  0  0
   -4.1392   -3.9500   -1.2243 H   0  0  0  0  0  0  0  0  0  0  0  0
   -6.7425   -1.2243   -1.5938 H   0  0  0  0  0  0  0  0  0  0  0  0
   -6.7965   -3.6949   -4.9819 H   0  0  0  0  0  0  0  0  0  0  0  0
    0.5140    0.9946   -1.2938 H   0  0  0  0  0  0  0  0  0  0  0  0
    2.2040    2.6961   -0.1137 H   0  0  0  0  0  0  0  0  0  0  0  0
    2.8129    1.1741   -0.7194 H   0  0  0  0  0  0  0  0  0  0  0  0
    4.8478    3.4192    0.9043 H   0  0  0  0  0  0  0  0  0  0  0  0
    5.1414    2.1069   -0.2118 H   0  0  0  0  0  0  0  0  0  0  0  0
    6.6106    1.1232    1.2884 H   0  0  0  0  0  0  0  0  0  0  0  0
    6.3949    2.4875    2.3590 H   0  0  0  0  0  0  0  0  0  0  0  0
    5.5487    0.1305    3.2799 H   0  0  0  0  0  0  0  0  0  0  0  0
    3.6874    1.2935    4.3623 H   0  0  0  0  0  0  0  0  0  0  0  0
    4.7736    2.6044    3.9674 H   0  0  0  0  0  0  0  0  0  0  0  0
    2.1512    2.0958    2.8494 H   0  0  0  0  0  0  0  0  0  0  0  0
    3.2204    3.4290    2.4840 H   0  0  0  0  0  0  0  0  0  0  0  0
    4.4180   -0.3279    0.9691 H   0  0  0  0  0  0  0  0  0  0  0  0
    3.1937   -0.2668    2.2148 H   0  0  0  0  0  0  0  0  0  0  0  0
  1  2  1  0  0  0  0
  1 25  1  0  0  0  0
  1 26  1  0  0  0  0
  1 27  1  0  0  0  0
  2  3  1  0  0  0  0
  2 21  1  0  0  0  0
  2 28  1  1  0  0  0
  3 18  1  0  0  0  0
  3 29  1  0  0  0  0
  3 30  1  0  0  0  0
  4 18  1  0  0  0  0
  4  5  1  0  0  0  0
  4 22  2  0  0  0  0
  5 19  1  0  0  0  0
  5 32  1  0  0  0  0
  5 33  1  0  0  0  0
  6 19  1  0  0  0  0
  6 34  1  0  0  0  0
  6  7  2  0  0  0  0
  7 24  1  0  0  0  0
  7  8  1  0  0  0  0
  8 35  1  0  0  0  0
  8 20  2  0  0  0  0
  9 21  1  0  0  0  0
  9 10  1  0  0  0  0
  9 23  2  0  0  0  0
 10 37  1  0  0  0  0
 10 38  1  0  0  0  0
 11 10  1  6  0  0  0
 11 12  1  0  0  0  0
 11 16  1  0  0  0  0
 11 17  1  0  0  0  0
 12 13  1  0  0  0  0
 12 39  1  0  0  0  0
 12 40  1  0  0  0  0
 13 14  1  0  0  0  0
 13 41  1  0  0  0  0
 13 42  1  0  0  0  0
 14 15  1  0  0  0  0
 14 17  1  0  0  0  0
 14 43  1  1  0  0  0
 15 16  1  0  0  0  0
 15 44  1  0  0  0  0
 15 45  1  0  0  0  0
 16 46  1  0  0  0  0
 16 47  1  0  0  0  0
 17 48  1  0  0  0  0
 17 49  1  0  0  0  0
 18 31  1  0  0  0  0
 19 20  1  0  0  0  0
 21 36  1  0  0  0  0
M  END
>  <score>
0.44791054725646973

$$$$
PV-004021028153
 OpenBabel08202115463D

 53 56  0  0  0  0  0  0  0  0999 V2000
    6.6665    0.2718    1.9500 C   0  0  0  0  0  0  0  0  0  0  0  0
    5.1048    1.8372    2.8565 C   0  0  0  0  0  0  0  0  0  0  0  0
    3.7609    2.5059    2.6625 C   0  0  0  0  0  0  0  0  0  0  0  0
    3.8966    2.2046    0.3633 C   0  0  2  0  0  0  0  0  0  0  0  0
    2.8175    1.1579    0.4210 C   0  0  0  0  0  0  0  0  0  0  0  0
    1.2152    2.9658    0.2938 C   0  0  0  0  0  0  0  0  0  0  0  0
    0.4972    0.7674    1.2383 C   0  0  0  0  0  0  0  0  0  0  0  0
   -0.5172    0.1577    0.2695 C   0  0  2  0  0  0  0  0  0  0  0  0
   -1.5540   -0.4207   -0.6955 C   0  0  2  0  0  0  0  0  0  0  0  0
   -2.6367    0.5274   -1.2544 C   0  0  0  0  0  0  0  0  0  0  0  0
   -4.7175   -0.9134   -1.3052 C   0  0  0  0  0  0  0  0  0  0  0  0
   -5.3344   -2.2269   -0.8936 C   0  0  0  0  0  0  0  0  0  0  0  0
   -5.1765   -4.0503   -2.6515 C   0  0  0  0  0  0  0  0  0  0  0  0
   -5.9063   -4.3362   -3.7807 C   0  0  0  0  0  0  0  0  0  0  0  0
   -6.9653   -3.4182   -3.7773 C   0  0  0  0  0  0  0  0  0  0  0  0
   -2.5802   -1.5036   -0.0836 C   0  0  0  0  0  0  0  0  0  0  0  0
   -1.8331   -0.4989    0.8196 C   0  0  1  0  0  0  0  0  0  0  0  0
    5.2400    1.5342    0.5085 C   0  0  0  0  0  0  0  0  0  0  0  0
    5.3308    0.8644    1.7968 N   0  0  0  0  0  0  0  0  0  0  0  0
    1.5451    1.5681    0.6025 N   0  0  0  0  0  0  0  0  0  0  0  0
   -3.4661   -0.6611   -0.9277 N   0  0  0  0  0  0  0  0  0  0  0  0
   -5.7961   -3.0154   -2.0358 N   0  0  0  0  0  0  0  0  0  0  0  0
   -6.8970   -2.6071   -2.7174 N   0  0  0  0  0  0  0  0  0  0  0  0
    3.6789    3.1532    1.4018 O   0  0  0  0  0  0  0  0  0  0  0  0
    3.0879   -0.0274    0.3067 O   0  0  0  0  0  0  0  0  0  0  0  0
   -5.4031   -0.1386   -1.9709 O   0  0  0  0  0  0  0  0  0  0  0  0
    7.1526    0.2358    0.9975 H   0  0  0  0  0  0  0  0  0  0  0  0
    6.5737   -0.7201    2.3405 H   0  0  0  0  0  0  0  0  0  0  0  0
    7.2459    0.8681    2.6235 H   0  0  0  0  0  0  0  0  0  0  0  0
    5.1203    1.3400    3.8038 H   0  0  0  0  0  0  0  0  0  0  0  0
    5.8768    2.5776    2.8290 H   0  0  0  0  0  0  0  0  0  0  0  0
    3.6191    3.2318    3.4358 H   0  0  0  0  0  0  0  0  0  0  0  0
    2.9918    1.7645    2.7232 H   0  0  0  0  0  0  0  0  0  0  0  0
    3.8575    2.7063   -0.5810 H   0  0  0  0  0  0  0  0  0  0  0  0
    0.6764    3.0101   -0.6295 H   0  0  0  0  0  0  0  0  0  0  0  0
    2.1176    3.5343    0.2076 H   0  0  0  0  0  0  0  0  0  0  0  0
    0.6114    3.3712    1.0787 H   0  0  0  0  0  0  0  0  0  0  0  0
   -0.0324    1.3955    1.9237 H   0  0  0  0  0  0  0  0  0  0  0  0
    0.9669   -0.0305    1.7747 H   0  0  0  0  0  0  0  0  0  0  0  0
   -0.0007   -0.2872   -0.5552 H   0  0  0  0  0  0  0  0  0  0  0  0
   -1.4347   -0.8912   -1.7050 H   0  0  0  0  0  0  0  0  0  0  0  0
   -3.2553    1.3543   -1.5344 H   0  0  0  0  0  0  0  0  0  0  0  0
   -1.9555    0.3056   -2.0493 H   0  0  0  0  0  0  0  0  0  0  0  0
   -6.1697   -2.0276   -0.2552 H   0  0  0  0  0  0  0  0  0  0  0  0
   -4.6032   -2.7956   -0.3581 H   0  0  0  0  0  0  0  0  0  0  0  0
   -4.3140   -4.5355   -2.3315 H   0  0  0  0  0  0  0  0  0  0  0  0
   -5.7139   -5.0754   -4.4865 H   0  0  0  0  0  0  0  0  0  0  0  0
   -7.7074   -3.3739   -4.5046 H   0  0  0  0  0  0  0  0  0  0  0  0
   -3.1569   -2.1852    0.5061 H   0  0  0  0  0  0  0  0  0  0  0  0
   -1.8900   -2.0517   -0.6903 H   0  0  0  0  0  0  0  0  0  0  0  0
   -2.0084   -0.5058    1.8760 H   0  0  0  0  0  0  0  0  0  0  0  0
    6.0122    2.2716    0.4384 H   0  0  0  0  0  0  0  0  0  0  0  0
    5.3618    0.8141   -0.2735 H   0  0  0  0  0  0  0  0  0  0  0  0
  1 19  1  0  0  0  0
  1 27  1  0  0  0  0
  1 28  1  0  0  0  0
  1 29  1  0  0  0  0
  2 19  1  0  0  0  0
  2  3  1  0  0  0  0
  2 30  1  0  0  0  0
  2 31  1  0  0  0  0
  3 24  1  0  0  0  0
  3 32  1  0  0  0  0
  3 33  1  0  0  0  0
  4 24  1  0  0  0  0
  4  5  1  0  0  0  0
  4 18  1  0  0  0  0
  4 34  1  6  0  0  0
  5 20  1  0  0  0  0
  5 25  2  0  0  0  0
  6 20  1  0  0  0  0
  6 35  1  0  0  0  0
  6 36  1  0  0  0  0
  6 37  1  0  0  0  0
  7 20  1  0  0  0  0
  7  8  1  0  0  0  0
  7 38  1  0  0  0  0
  7 39  1  0  0  0  0
  8  9  1  0  0  0  0
  8 17  1  0  0  0  0
  8 40  1  1  0  0  0
  9 10  1  0  0  0  0
  9 17  1  0  0  0  0
  9 41  1  6  0  0  0
 10 21  1  0  0  0  0
 10 42  1  0  0  0  0
 10 43  1  0  0  0  0
 11 21  1  0  0  0  0
 11 12  1  0  0  0  0
 11 26  2  0  0  0  0
 12 22  1  0  0  0  0
 12 44  1  0  0  0  0
 12 45  1  0  0  0  0
 13 22  1  0  0  0  0
 13 46  1  0  0  0  0
 13 14  2  0  0  0  0
 14 15  1  0  0  0  0
 14 47  1  0  0  0  0
 15 48  1  0  0  0  0
 15 23  2  0  0  0  0
 16 21  1  0  0  0  0
 16 17  1  0  0  0  0
 16 49  1  0  0  0  0
 16 50  1  0  0  0  0
 17 51  1  1  0  0  0
 18 19  1  0  0  0  0
 18 52  1  0  0  0  0
 18 53  1  0  0  0  0
 22 23  1  0  0  0  0
M  END
>  <score>
0.44802767038345337

$$$$
Z3552189278
 OpenBabel08202115463D

 55 56  0  0  0  0  0  0  0  0999 V2000
   -2.9581    1.1919   -2.5587 C   0  0  0  0  0  0  0  0  0  0  0  0
   -3.1363   -0.1951   -2.0131 C   0  0  0  0  0  0  0  0  0  0  0  0
   -4.6362   -3.3729   -2.2350 C   0  0  0  0  0  0  0  0  0  0  0  0
   -5.4195   -3.2262   -3.5733 C   0  0  0  0  0  0  0  0  0  0  0  0
   -6.6950   -3.7886   -2.8944 C   0  0  0  0  0  0  0  0  0  0  0  0
   -6.0035   -3.4987   -1.5269 C   0  0  0  0  0  0  0  0  0  0  0  0
   -3.0044   -2.0423   -0.8143 C   0  0  0  0  0  0  0  0  0  0  0  0
   -2.5190   -0.7584   -0.8880 C   0  0  0  0  0  0  0  0  0  0  0  0
   -1.5397   -0.1416    0.0587 C   0  0  0  0  0  0  0  0  0  0  0  0
   -0.1554    1.8226    0.5693 C   0  0  1  0  0  0  0  0  0  0  0  0
    1.0683    2.3656   -0.1499 C   0  0  0  0  0  0  0  0  0  0  0  0
    2.0491    1.2843   -0.5702 C   0  0  0  0  0  0  0  0  0  0  0  0
    3.8736    1.0478    1.1506 C   0  0  0  0  0  0  0  0  0  0  0  0
    5.5630    0.5849    2.7591 C   0  0  0  0  0  0  0  0  0  0  0  0
    6.6223    0.7119    1.6966 C   0  0  0  0  0  0  0  0  0  0  0  0
    5.9358   -0.3935    3.8378 C   0  0  0  0  0  0  0  0  0  0  0  0
    5.2256    1.9325    3.3471 C   0  0  0  0  0  0  0  0  0  0  0  0
   -1.0051    2.9044    1.1013 C   0  0  0  0  0  0  0  0  0  0  0  0
   -3.9591   -1.0693   -2.6000 N   0  0  0  0  0  0  0  0  0  0  0  0
   -3.8591   -2.1986   -1.8531 N   0  0  0  0  0  0  0  0  0  0  0  0
   -0.9691    1.0006   -0.3347 N   0  0  0  0  0  0  0  0  0  0  0  0
    2.6939    0.6359    0.5731 N   0  0  0  0  0  0  0  0  0  0  0  0
   -1.2865   -0.6736    1.1379 O   0  0  0  0  0  0  0  0  0  0  0  0
    4.4494    2.0467    0.7994 O   0  0  0  0  0  0  0  0  0  0  0  0
    4.2770    0.1878    2.1424 O   0  0  0  0  0  0  0  0  0  0  0  0
   -0.3892    3.5252    2.1044 F   0  0  0  0  0  0  0  0  0  0  0  0
   -2.0493    2.3173    1.7553 F   0  0  0  0  0  0  0  0  0  0  0  0
   -3.6038    1.3302   -3.4006 H   0  0  0  0  0  0  0  0  0  0  0  0
   -1.9413    1.3271   -2.8633 H   0  0  0  0  0  0  0  0  0  0  0  0
   -3.2021    1.9069   -1.8011 H   0  0  0  0  0  0  0  0  0  0  0  0
   -4.0195   -4.2451   -2.1724 H   0  0  0  0  0  0  0  0  0  0  0  0
   -5.5160   -2.2164   -3.9135 H   0  0  0  0  0  0  0  0  0  0  0  0
   -5.0434   -3.8364   -4.3677 H   0  0  0  0  0  0  0  0  0  0  0  0
   -7.5844   -3.2217   -3.0747 H   0  0  0  0  0  0  0  0  0  0  0  0
   -6.8855   -4.8234   -3.0885 H   0  0  0  0  0  0  0  0  0  0  0  0
   -6.3337   -2.5973   -1.0544 H   0  0  0  0  0  0  0  0  0  0  0  0
   -6.0600   -4.3087   -0.8300 H   0  0  0  0  0  0  0  0  0  0  0  0
   -2.7618   -2.7566   -0.0984 H   0  0  0  0  0  0  0  0  0  0  0  0
   -1.0983    1.3002   -1.2588 H   0  0  0  0  0  0  0  0  0  0  0  0
    0.1746    1.2191    1.3889 H   0  0  0  0  0  0  0  0  0  0  0  0
    1.5727    3.0453    0.5047 H   0  0  0  0  0  0  0  0  0  0  0  0
    0.7434    2.8878   -1.0255 H   0  0  0  0  0  0  0  0  0  0  0  0
    2.8051    1.7270   -1.1845 H   0  0  0  0  0  0  0  0  0  0  0  0
    1.5214    0.5424   -1.1323 H   0  0  0  0  0  0  0  0  0  0  0  0
    2.2524   -0.1507    0.9562 H   0  0  0  0  0  0  0  0  0  0  0  0
    6.6826   -0.2008    1.1414 H   0  0  0  0  0  0  0  0  0  0  0  0
    7.5671    0.9118    2.1573 H   0  0  0  0  0  0  0  0  0  0  0  0
    6.3700    1.5149    1.0360 H   0  0  0  0  0  0  0  0  0  0  0  0
    6.9884   -0.3384    4.0218 H   0  0  0  0  0  0  0  0  0  0  0  0
    5.6801   -1.3841    3.5244 H   0  0  0  0  0  0  0  0  0  0  0  0
    5.4041   -0.1543    4.7351 H   0  0  0  0  0  0  0  0  0  0  0  0
    5.9552    2.1929    4.0852 H   0  0  0  0  0  0  0  0  0  0  0  0
    4.2579    1.8909    3.8016 H   0  0  0  0  0  0  0  0  0  0  0  0
    5.2245    2.6696    2.5714 H   0  0  0  0  0  0  0  0  0  0  0  0
   -1.3214    3.5646    0.3209 H   0  0  0  0  0  0  0  0  0  0  0  0
  1  2  1  0  0  0  0
  1 28  1  0  0  0  0
  1 29  1  0  0  0  0
  1 30  1  0  0  0  0
  2  8  1  0  0  0  0
  2 19  2  0  0  0  0
  3 20  1  0  0  0  0
  3  4  1  0  0  0  0
  3  6  1  0  0  0  0
  3 31  1  0  0  0  0
  4  5  1  0  0  0  0
  4 32  1  0  0  0  0
  4 33  1  0  0  0  0
  5  6  1  0  0  0  0
  5 34  1  0  0  0  0
  5 35  1  0  0  0  0
  6 36  1  0  0  0  0
  6 37  1  0  0  0  0
  7 20  1  0  0  0  0
  7 38  1  0  0  0  0
  7  8  2  0  0  0  0
  8  9  1  0  0  0  0
  9 21  1  0  0  0  0
  9 23  2  0  0  0  0
 10 21  1  0  0  0  0
 10 11  1  0  0  0  0
 10 18  1  0  0  0  0
 10 40  1  1  0  0  0
 11 12  1  0  0  0  0
 11 41  1  0  0  0  0
 11 42  1  0  0  0  0
 12 22  1  0  0  0  0
 12 43  1  0  0  0  0
 12 44  1  0  0  0  0
 13 22  1  0  0  0  0
 13 25  1  0  0  0  0
 13 24  2  0  0  0  0
 14 25  1  0  0  0  0
 14 15  1  0  0  0  0
 14 16  1  0  0  0  0
 14 17  1  0  0  0  0
 15 46  1  0  0  0  0
 15 47  1  0  0  0  0
 15 48  1  0  0  0  0
 16 49  1  0  0  0  0
 16 50  1  0  0  0  0
 16 51  1  0  0  0  0
 17 52  1  0  0  0  0
 17 53  1  0  0  0  0
 17 54  1  0  0  0  0
 18 26  1  0  0  0  0
 18 27  1  0  0  0  0
 18 55  1  0  0  0  0
 19 20  1  0  0  0  0
 21 39  1  0  0  0  0
 22 45  1  0  0  0  0
M  END
>  <score>
0.44811320304870605

$$$$
Z3569920034
 OpenBabel08202115463D

 52 55  0  0  0  0  0  0  0  0999 V2000
    1.0364    0.8774   -0.6712 O   0  0  0  0  0  0  0  0  0  0  0  0
   -4.9822   -0.9417   -3.3761 O   0  0  0  0  0  0  0  0  0  0  0  0
    7.6109    1.4702    2.8626 O   0  0  0  0  0  0  0  0  0  0  0  0
    0.5342    0.6816    0.4325 C   0  0  0  0  0  0  0  0  0  0  0  0
   -1.7371    1.0886   -0.4026 C   0  0  0  0  0  0  0  0  0  0  0  0
   -2.6034   -0.0620   -0.8507 C   0  0  0  0  0  0  0  0  0  0  0  0
   -3.4648    0.0255   -1.9277 C   0  0  0  0  0  0  0  0  0  0  0  0
   -4.1570   -1.1055   -2.3192 C   0  0  0  0  0  0  0  0  0  0  0  0
   -5.6181   -2.1013   -3.9722 C   0  0  0  0  0  0  0  0  0  0  0  0
   -7.0025   -2.4424   -3.3747 C   0  0  0  0  0  0  0  0  0  0  0  0
   -7.5942   -2.2181   -4.7472 C   0  0  0  0  0  0  0  0  0  0  0  0
   -6.2895   -1.8250   -5.3313 C   0  0  0  0  0  0  0  0  0  0  0  0
   -3.9575   -2.2803   -1.6207 C   0  0  0  0  0  0  0  0  0  0  0  0
   -3.0731   -2.2795   -0.5562 C   0  0  0  0  0  0  0  0  0  0  0  0
    2.7016    0.3297    1.5721 C   0  0  0  0  0  0  0  0  0  0  0  0
    3.3540    1.5703    2.1799 C   0  0  1  0  0  0  0  0  0  0  0  0
    3.7431    1.5826    3.6601 C   0  0  0  0  0  0  0  0  0  0  0  0
    4.8265    1.5383    2.5832 C   0  0  0  0  0  0  0  0  0  0  0  0
    5.5931    0.2249    2.3933 C   0  0  0  0  0  0  0  0  0  0  0  0
    6.8842    0.2923    3.2175 C   0  0  0  0  0  0  0  0  0  0  0  0
    6.9467    2.6945    3.1805 C   0  0  0  0  0  0  0  0  0  0  0  0
    5.6602    2.8036    2.3535 C   0  0  0  0  0  0  0  0  0  0  0  0
   -0.7850    0.7050    0.6426 N   0  0  0  0  0  0  0  0  0  0  0  0
   -2.3988   -1.1896   -0.1630 N   0  0  0  0  0  0  0  0  0  0  0  0
    1.2502    0.4269    1.5288 N   0  0  0  0  0  0  0  0  0  0  0  0
    3.5672    2.7004    4.3945 F   0  0  0  0  0  0  0  0  0  0  0  0
    3.5145    0.5177    4.4141 F   0  0  0  0  0  0  0  0  0  0  0  0
   -1.1277    0.4570    1.5266 H   0  0  0  0  0  0  0  0  0  0  0  0
   -1.1902    1.4542   -1.2464 H   0  0  0  0  0  0  0  0  0  0  0  0
   -2.3683    1.8646   -0.0226 H   0  0  0  0  0  0  0  0  0  0  0  0
   -3.5900    0.9251   -2.4342 H   0  0  0  0  0  0  0  0  0  0  0  0
   -4.9301   -2.9208   -3.9812 H   0  0  0  0  0  0  0  0  0  0  0  0
   -7.3440   -1.7577   -2.6268 H   0  0  0  0  0  0  0  0  0  0  0  0
   -7.0939   -3.4443   -3.0103 H   0  0  0  0  0  0  0  0  0  0  0  0
   -8.3243   -1.4363   -4.7727 H   0  0  0  0  0  0  0  0  0  0  0  0
   -8.0051   -3.1048   -5.1830 H   0  0  0  0  0  0  0  0  0  0  0  0
   -5.9540   -2.4603   -6.1242 H   0  0  0  0  0  0  0  0  0  0  0  0
   -6.2393   -0.8036   -5.6464 H   0  0  0  0  0  0  0  0  0  0  0  0
   -4.4623   -3.1489   -1.8896 H   0  0  0  0  0  0  0  0  0  0  0  0
   -2.9244   -3.1677   -0.0359 H   0  0  0  0  0  0  0  0  0  0  0  0
    0.7620    0.2952    2.3683 H   0  0  0  0  0  0  0  0  0  0  0  0
    3.0667    0.2044    0.5741 H   0  0  0  0  0  0  0  0  0  0  0  0
    2.9708   -0.5224    2.1605 H   0  0  0  0  0  0  0  0  0  0  0  0
    2.9423    2.4483    1.7277 H   0  0  0  0  0  0  0  0  0  0  0  0
    5.8319    0.0928    1.3586 H   0  0  0  0  0  0  0  0  0  0  0  0
    4.9930   -0.5950    2.7288 H   0  0  0  0  0  0  0  0  0  0  0  0
    7.4827   -0.5712    3.0150 H   0  0  0  0  0  0  0  0  0  0  0  0
    6.6418    0.3225    4.2593 H   0  0  0  0  0  0  0  0  0  0  0  0
    7.5891    3.5191    2.9520 H   0  0  0  0  0  0  0  0  0  0  0  0
    6.7038    2.7090    4.2224 H   0  0  0  0  0  0  0  0  0  0  0  0
    5.1038    3.6635    2.6632 H   0  0  0  0  0  0  0  0  0  0  0  0
    5.9047    2.8912    1.3155 H   0  0  0  0  0  0  0  0  0  0  0  0
  4 23  1  0  0  0  0
  4 25  1  0  0  0  0
  4  1  2  0  0  0  0
  5 23  1  0  0  0  0
  5  6  1  0  0  0  0
  5 29  1  0  0  0  0
  5 30  1  0  0  0  0
  6 24  1  0  0  0  0
  6  7  2  0  0  0  0
  7  8  1  0  0  0  0
  7 31  1  0  0  0  0
  8  2  1  0  0  0  0
  8 13  2  0  0  0  0
  9  2  1  0  0  0  0
  9 10  1  0  0  0  0
  9 12  1  0  0  0  0
  9 32  1  0  0  0  0
 10 11  1  0  0  0  0
 10 33  1  0  0  0  0
 10 34  1  0  0  0  0
 11 12  1  0  0  0  0
 11 35  1  0  0  0  0
 11 36  1  0  0  0  0
 12 37  1  0  0  0  0
 12 38  1  0  0  0  0
 13 14  1  0  0  0  0
 13 39  1  0  0  0  0
 14 40  1  0  0  0  0
 14 24  2  0  0  0  0
 15 25  1  0  0  0  0
 15 16  1  0  0  0  0
 15 42  1  0  0  0  0
 15 43  1  0  0  0  0
 16 17  1  0  0  0  0
 16 18  1  0  0  0  0
 16 44  1  6  0  0  0
 17 26  1  0  0  0  0
 17 27  1  0  0  0  0
 17 18  1  0  0  0  0
 18 19  1  0  0  0  0
 18 22  1  0  0  0  0
 19 20  1  0  0  0  0
 19 45  1  0  0  0  0
 19 46  1  0  0  0  0
 20  3  1  0  0  0  0
 20 47  1  0  0  0  0
 20 48  1  0  0  0  0
 21  3  1  0  0  0  0
 21 22  1  0  0  0  0
 21 49  1  0  0  0  0
 21 50  1  0  0  0  0
 22 51  1  0  0  0  0
 22 52  1  0  0  0  0
 23 28  1  0  0  0  0
 25 41  1  0  0  0  0
M  END
>  <score>
0.44815665483474731

$$$$
PV-003842002900
 OpenBabel08202115463D

 51 54  0  0  0  0  0  0  0  0999 V2000
    1.3663    3.7183    2.6098 C   0  0  0  0  0  0  0  0  0  0  0  0
    0.0466    1.1796    0.6322 C   0  0  0  0  0  0  0  0  0  0  0  0
   -0.9375    0.6134   -0.3158 C   0  0  0  0  0  0  0  0  0  0  0  0
   -0.8135   -0.6705   -0.8123 C   0  0  0  0  0  0  0  0  0  0  0  0
   -1.7600   -1.1668   -1.6952 C   0  0  0  0  0  0  0  0  0  0  0  0
   -2.8249   -0.3756   -2.0830 C   0  0  0  0  0  0  0  0  0  0  0  0
   -3.8981   -0.9566   -2.9731 C   0  0  0  0  0  0  0  0  0  0  0  0
   -6.0269   -2.0655   -3.1158 C   0  0  0  0  0  0  0  0  0  0  0  0
   -5.6016   -3.3766   -3.7262 C   0  0  0  0  0  0  0  0  0  0  0  0
   -4.5201   -3.9266   -2.7967 C   0  0  0  0  0  0  0  0  0  0  0  0
   -4.3117   -2.9587   -1.6688 C   0  0  0  0  0  0  0  0  0  0  0  0
   -2.9494    0.9120   -1.5851 C   0  0  0  0  0  0  0  0  0  0  0  0
   -2.0056    1.4067   -0.7049 C   0  0  0  0  0  0  0  0  0  0  0  0
    1.6968    1.3169    1.8851 C   0  0  0  0  0  0  0  0  0  0  0  0
    2.9432    1.0602    2.6855 C   0  0  0  0  0  0  0  0  0  0  0  0
    5.2246    1.5520    3.0061 C   0  0  1  0  0  0  0  0  0  0  0  0
    5.8253    0.1658    2.7369 C   0  0  0  0  0  0  0  0  0  0  0  0
    6.8141    0.4414    1.5932 C   0  0  0  0  0  0  0  0  0  0  0  0
    6.3402    2.4993    2.6283 C   0  0  0  0  0  0  0  0  0  0  0  0
    1.0593    2.4848    1.8936 N   0  0  0  0  0  0  0  0  0  0  0  0
   -0.0291    2.4186    1.0817 N   0  0  0  0  0  0  0  0  0  0  0  0
   -4.8938   -1.6681   -2.2236 N   0  0  0  0  0  0  0  0  0  0  0  0
    1.0829    0.4570    1.0933 N   0  0  0  0  0  0  0  0  0  0  0  0
    4.0737    1.7734    2.1977 O   0  0  0  0  0  0  0  0  0  0  0  0
    7.0334    1.8228    1.5358 O   0  0  0  0  0  0  0  0  0  0  0  0
    0.9302    4.5485    2.0946 H   0  0  0  0  0  0  0  0  0  0  0  0
    2.4274    3.8471    2.6592 H   0  0  0  0  0  0  0  0  0  0  0  0
    0.9666    3.6639    3.6008 H   0  0  0  0  0  0  0  0  0  0  0  0
   -0.0100   -1.2643   -0.5236 H   0  0  0  0  0  0  0  0  0  0  0  0
   -1.6689   -2.1343   -2.0656 H   0  0  0  0  0  0  0  0  0  0  0  0
   -3.4424   -1.6305   -3.6681 H   0  0  0  0  0  0  0  0  0  0  0  0
   -4.3722   -0.1596   -3.5069 H   0  0  0  0  0  0  0  0  0  0  0  0
   -6.9262   -2.1887   -2.5492 H   0  0  0  0  0  0  0  0  0  0  0  0
   -6.1822   -1.3294   -3.8767 H   0  0  0  0  0  0  0  0  0  0  0  0
   -5.2070   -3.2213   -4.7085 H   0  0  0  0  0  0  0  0  0  0  0  0
   -6.4302   -4.0518   -3.7768 H   0  0  0  0  0  0  0  0  0  0  0  0
   -4.8302   -4.8730   -2.4053 H   0  0  0  0  0  0  0  0  0  0  0  0
   -3.6064   -4.0470   -3.3404 H   0  0  0  0  0  0  0  0  0  0  0  0
   -3.2716   -2.8471   -1.4436 H   0  0  0  0  0  0  0  0  0  0  0  0
   -4.8358   -3.2718   -0.7901 H   0  0  0  0  0  0  0  0  0  0  0  0
   -3.7529    1.5059   -1.8738 H   0  0  0  0  0  0  0  0  0  0  0  0
   -2.0967    2.3742   -0.3345 H   0  0  0  0  0  0  0  0  0  0  0  0
    3.1603    0.0130    2.6519 H   0  0  0  0  0  0  0  0  0  0  0  0
    2.7648    1.3556    3.6983 H   0  0  0  0  0  0  0  0  0  0  0  0
    4.9629    1.6615    4.0378 H   0  0  0  0  0  0  0  0  0  0  0  0
    5.0702   -0.5296    2.4347 H   0  0  0  0  0  0  0  0  0  0  0  0
    6.3311   -0.2098    3.6018 H   0  0  0  0  0  0  0  0  0  0  0  0
    6.4019    0.1004    0.6665 H   0  0  0  0  0  0  0  0  0  0  0  0
    7.7375   -0.0653    1.7813 H   0  0  0  0  0  0  0  0  0  0  0  0
    7.0000    2.6568    3.4558 H   0  0  0  0  0  0  0  0  0  0  0  0
    5.9454    3.4389    2.3024 H   0  0  0  0  0  0  0  0  0  0  0  0
  1 20  1  0  0  0  0
  1 26  1  0  0  0  0
  1 27  1  0  0  0  0
  1 28  1  0  0  0  0
  2  3  1  0  0  0  0
  2 23  1  0  0  0  0
  2 21  2  0  0  0  0
  3 13  1  0  0  0  0
  3  4  2  0  0  0  0
  4  5  1  0  0  0  0
  4 29  1  0  0  0  0
  5 30  1  0  0  0  0
  5  6  2  0  0  0  0
  6  7  1  0  0  0  0
  6 12  1  0  0  0  0
  7 22  1  0  0  0  0
  7 31  1  0  0  0  0
  7 32  1  0  0  0  0
  8 22  1  0  0  0  0
  8  9  1  0  0  0  0
  8 33  1  0  0  0  0
  8 34  1  0  0  0  0
  9 10  1  0  0  0  0
  9 35  1  0  0  0  0
  9 36  1  0  0  0  0
 10 11  1  0  0  0  0
 10 37  1  0  0  0  0
 10 38  1  0  0  0  0
 11 22  1  0  0  0  0
 11 39  1  0  0  0  0
 11 40  1  0  0  0  0
 12 41  1  0  0  0  0
 12 13  2  0  0  0  0
 13 42  1  0  0  0  0
 14 20  1  0  0  0  0
 14 15  1  0  0  0  0
 14 23  2  0  0  0  0
 15 24  1  0  0  0  0
 15 43  1  0  0  0  0
 15 44  1  0  0  0  0
 16 24  1  0  0  0  0
 16 17  1  0  0  0  0
 16 19  1  0  0  0  0
 16 45  1  1  0  0  0
 17 18  1  0  0  0  0
 17 46  1  0  0  0  0
 17 47  1  0  0  0  0
 18 25  1  0  0  0  0
 18 48  1  0  0  0  0
 18 49  1  0  0  0  0
 19 25  1  0  0  0  0
 19 50  1  0  0  0  0
 19 51  1  0  0  0  0
 20 21  1  0  0  0  0
M  END
>  <score>
0.44824510812759399

$$$$
Z4645010062
 OpenBabel08202115463D

 56 57  0  0  0  0  0  0  0  0999 V2000
    5.9684    0.3448    2.9455 C   0  0  0  0  0  0  0  0  0  0  0  0
    5.7623    1.7468    2.3958 C   0  0  0  0  0  0  0  0  0  0  0  0
    6.3337    1.8697    1.0106 C   0  0  0  0  0  0  0  0  0  0  0  0
    6.3120    2.7915    3.3533 C   0  0  0  0  0  0  0  0  0  0  0  0
    3.6552    1.0863    1.4838 C   0  0  0  0  0  0  0  0  0  0  0  0
    2.1605    1.2002    1.6934 C   0  0  1  0  0  0  0  0  0  0  0  0
    1.8133    2.6266    2.1126 C   0  0  0  0  0  0  0  0  0  0  0  0
    0.8212    3.1066    1.0878 C   0  0  0  0  0  0  0  0  0  0  0  0
    1.0351    2.1566   -0.1133 C   0  0  0  0  0  0  0  0  0  0  0  0
    0.2914    0.0065    0.7104 C   0  0  0  0  0  0  0  0  0  0  0  0
   -0.6075   -0.1055   -0.4545 C   0  0  0  0  0  0  0  0  0  0  0  0
   -2.4494   -1.3257   -1.2286 C   0  0  0  0  0  0  0  0  0  0  0  0
   -3.6055   -2.1622   -0.8038 C   0  0  2  0  0  0  0  0  0  0  0  0
   -4.6882   -2.0350   -1.8826 C   0  0  0  0  0  0  0  0  0  0  0  0
   -5.9650   -2.7113   -1.3922 C   0  0  0  0  0  0  0  0  0  0  0  0
   -7.0708   -2.6465   -2.4550 C   0  0  0  0  0  0  0  0  0  0  0  0
   -6.5631   -3.2085   -3.7516 C   0  0  0  0  0  0  0  0  0  0  0  0
   -5.2659   -2.6444   -4.2569 C   0  0  0  0  0  0  0  0  0  0  0  0
   -4.1921   -2.6850   -3.1667 C   0  0  0  0  0  0  0  0  0  0  0  0
    4.3252    1.8393    2.3422 O   0  0  0  0  0  0  0  0  0  0  0  0
    4.1472    0.3945    0.6395 O   0  0  0  0  0  0  0  0  0  0  0  0
   -1.5822   -1.1581   -0.2424 O   0  0  0  0  0  0  0  0  0  0  0  0
   -2.3397   -0.8719   -2.3311 O   0  0  0  0  0  0  0  0  0  0  0  0
   -7.1700   -4.0743   -4.3603 O   0  0  0  0  0  0  0  0  0  0  0  0
    1.4640    0.8722    0.4404 N   0  0  0  0  0  0  0  0  0  0  0  0
   -4.0885   -1.7214    0.4291 F   0  0  0  0  0  0  0  0  0  0  0  0
    5.3835    0.3639    3.8413 H   0  0  0  0  0  0  0  0  0  0  0  0
    7.0002    0.1604    3.1601 H   0  0  0  0  0  0  0  0  0  0  0  0
    5.6076   -0.3960    2.2628 H   0  0  0  0  0  0  0  0  0  0  0  0
    5.9715    2.7666    0.5532 H   0  0  0  0  0  0  0  0  0  0  0  0
    6.0347    1.0252    0.4255 H   0  0  0  0  0  0  0  0  0  0  0  0
    7.4016    1.9048    1.0674 H   0  0  0  0  0  0  0  0  0  0  0  0
    7.3802    2.7326    3.3714 H   0  0  0  0  0  0  0  0  0  0  0  0
    5.9285    2.6113    4.3360 H   0  0  0  0  0  0  0  0  0  0  0  0
    6.0142    3.7660    3.0269 H   0  0  0  0  0  0  0  0  0  0  0  0
    1.8545    0.5192    2.4599 H   0  0  0  0  0  0  0  0  0  0  0  0
    1.3775    2.6352    3.0897 H   0  0  0  0  0  0  0  0  0  0  0  0
    2.6878    3.2432    2.1059 H   0  0  0  0  0  0  0  0  0  0  0  0
    1.0211    4.1206    0.8108 H   0  0  0  0  0  0  0  0  0  0  0  0
   -0.1786    3.0287    1.4609 H   0  0  0  0  0  0  0  0  0  0  0  0
    0.1211    2.0374   -0.6568 H   0  0  0  0  0  0  0  0  0  0  0  0
    1.7890    2.5482   -0.7638 H   0  0  0  0  0  0  0  0  0  0  0  0
   -0.2587    0.4196    1.5299 H   0  0  0  0  0  0  0  0  0  0  0  0
    0.6394   -0.9713    0.9705 H   0  0  0  0  0  0  0  0  0  0  0  0
   -0.0288   -0.3315   -1.3257 H   0  0  0  0  0  0  0  0  0  0  0  0
   -1.1181    0.8241   -0.5961 H   0  0  0  0  0  0  0  0  0  0  0  0
   -3.2893   -3.1821   -0.7347 H   0  0  0  0  0  0  0  0  0  0  0  0
   -4.8881   -1.0003   -2.0678 H   0  0  0  0  0  0  0  0  0  0  0  0
   -5.7538   -3.7365   -1.1705 H   0  0  0  0  0  0  0  0  0  0  0  0
   -6.3036   -2.2166   -0.5059 H   0  0  0  0  0  0  0  0  0  0  0  0
   -7.9135   -3.2178   -2.1261 H   0  0  0  0  0  0  0  0  0  0  0  0
   -7.3645   -1.6279   -2.6002 H   0  0  0  0  0  0  0  0  0  0  0  0
   -4.9359   -3.2214   -5.0953 H   0  0  0  0  0  0  0  0  0  0  0  0
   -5.4195   -1.6297   -4.5598 H   0  0  0  0  0  0  0  0  0  0  0  0
   -3.3251   -2.1609   -3.5110 H   0  0  0  0  0  0  0  0  0  0  0  0
   -3.9369   -3.7045   -2.9659 H   0  0  0  0  0  0  0  0  0  0  0  0
  1  2  1  0  0  0  0
  1 27  1  0  0  0  0
  1 28  1  0  0  0  0
  1 29  1  0  0  0  0
  2  3  1  0  0  0  0
  2  4  1  0  0  0  0
  2 20  1  0  0  0  0
  3 30  1  0  0  0  0
  3 31  1  0  0  0  0
  3 32  1  0  0  0  0
  4 33  1  0  0  0  0
  4 34  1  0  0  0  0
  4 35  1  0  0  0  0
  5 20  1  0  0  0  0
  5  6  1  0  0  0  0
  5 21  2  0  0  0  0
  6  7  1  0  0  0  0
  6 25  1  0  0  0  0
  6 36  1  1  0  0  0
  7  8  1  0  0  0  0
  7 37  1  0  0  0  0
  7 38  1  0  0  0  0
  8  9  1  0  0  0  0
  8 39  1  0  0  0  0
  8 40  1  0  0  0  0
  9 25  1  0  0  0  0
  9 41  1  0  0  0  0
  9 42  1  0  0  0  0
 10 25  1  0  0  0  0
 10 11  1  0  0  0  0
 10 43  1  0  0  0  0
 10 44  1  0  0  0  0
 11 22  1  0  0  0  0
 11 45  1  0  0  0  0
 11 46  1  0  0  0  0
 12 22  1  0  0  0  0
 12 13  1  0  0  0  0
 12 23  2  0  0  0  0
 13 26  1  0  0  0  0
 13 14  1  0  0  0  0
 13 47  1  1  0  0  0
 14 15  1  0  0  0  0
 14 19  1  0  0  0  0
 14 48  1  0  0  0  0
 15 16  1  0  0  0  0
 15 49  1  0  0  0  0
 15 50  1  0  0  0  0
 16 17  1  0  0  0  0
 16 51  1  0  0  0  0
 16 52  1  0  0  0  0
 17 18  1  0  0  0  0
 17 24  2  0  0  0  0
 18 19  1  0  0  0  0
 18 53  1  0  0  0  0
 18 54  1  0  0  0  0
 19 55  1  0  0  0  0
 19 56  1  0  0  0  0
M  END
>  <score>
0.44828557968139648

$$$$
Z3633633341
 OpenBabel08202115463D

 49 51  0  0  0  0  0  0  0  0999 V2000
    6.2185    2.1628    2.6336 C   0  0  0  0  0  0  0  0  0  0  0  0
    4.7229    2.4093    2.6308 C   0  0  0  0  0  0  0  0  0  0  0  0
    4.3688    3.3859    3.7356 C   0  0  0  0  0  0  0  0  0  0  0  0
    3.9718    1.1112    2.8104 C   0  0  0  0  0  0  0  0  0  0  0  0
    2.6577    1.4031    2.1286 C   0  0  2  0  0  0  0  0  0  0  0  0
    2.0072    0.1176    1.6233 C   0  0  0  0  0  0  0  0  0  0  0  0
    0.7512    0.4270    0.8250 C   0  0  0  0  0  0  0  0  0  0  0  0
   -0.9299   -0.7251   -0.5628 C   0  0  0  0  0  0  0  0  0  0  0  0
   -1.2974    0.5401   -1.0738 C   0  0  0  0  0  0  0  0  0  0  0  0
   -2.3329    0.5987   -1.9874 C   0  0  0  0  0  0  0  0  0  0  0  0
   -2.9634   -0.5640   -2.4124 C   0  0  0  0  0  0  0  0  0  0  0  0
   -4.0991   -0.6728   -3.4181 C   0  0  0  0  0  0  0  0  0  0  0  0
   -5.6817   -2.3665   -2.8279 C   0  0  0  0  0  0  0  0  0  0  0  0
   -6.1445   -3.8083   -2.9938 C   0  0  0  0  0  0  0  0  0  0  0  0
   -3.3863   -2.9219   -2.5238 C   0  0  0  0  0  0  0  0  0  0  0  0
   -2.5834   -1.7889   -1.9290 C   0  0  0  0  0  0  0  0  0  0  0  0
   -1.5669   -1.8836   -0.9938 C   0  0  0  0  0  0  0  0  0  0  0  0
    3.0527    2.3001    0.9745 C   0  0  0  0  0  0  0  0  0  0  0  0
    0.1012   -0.8145    0.4014 N   0  0  0  0  0  0  0  0  0  0  0  0
   -4.3293   -2.1460   -3.3579 N   0  0  0  0  0  0  0  0  0  0  0  0
   -7.3871   -3.9898   -2.5436 F   0  0  0  0  0  0  0  0  0  0  0  0
   -5.3632   -4.6633   -2.3317 F   0  0  0  0  0  0  0  0  0  0  0  0
   -6.1369   -4.1876   -4.2734 F   0  0  0  0  0  0  0  0  0  0  0  0
    4.2973    2.9167    1.3529 O   0  0  0  0  0  0  0  0  0  0  0  0
    6.7305    3.0702    2.3898 H   0  0  0  0  0  0  0  0  0  0  0  0
    6.4575    1.4129    1.9087 H   0  0  0  0  0  0  0  0  0  0  0  0
    6.5234    1.8313    3.6042 H   0  0  0  0  0  0  0  0  0  0  0  0
    4.4746    2.9045    4.6854 H   0  0  0  0  0  0  0  0  0  0  0  0
    3.3572    3.7122    3.6122 H   0  0  0  0  0  0  0  0  0  0  0  0
    5.0246    4.2300    3.6889 H   0  0  0  0  0  0  0  0  0  0  0  0
    3.8290    0.8865    3.8467 H   0  0  0  0  0  0  0  0  0  0  0  0
    4.4824    0.2994    2.3359 H   0  0  0  0  0  0  0  0  0  0  0  0
    1.9858    1.9065    2.7920 H   0  0  0  0  0  0  0  0  0  0  0  0
    1.7485   -0.4971    2.4601 H   0  0  0  0  0  0  0  0  0  0  0  0
    2.7009   -0.4042    0.9977 H   0  0  0  0  0  0  0  0  0  0  0  0
    1.0145    1.0004   -0.0392 H   0  0  0  0  0  0  0  0  0  0  0  0
    0.0751    0.9895    1.4344 H   0  0  0  0  0  0  0  0  0  0  0  0
    0.3717   -1.6796    0.7739 H   0  0  0  0  0  0  0  0  0  0  0  0
   -0.8024    1.4031   -0.7709 H   0  0  0  0  0  0  0  0  0  0  0  0
   -2.6422    1.5194   -2.3592 H   0  0  0  0  0  0  0  0  0  0  0  0
   -4.9615   -0.1198   -3.1095 H   0  0  0  0  0  0  0  0  0  0  0  0
   -3.8008   -0.3538   -4.3949 H   0  0  0  0  0  0  0  0  0  0  0  0
   -6.3628   -1.7256   -3.3478 H   0  0  0  0  0  0  0  0  0  0  0  0
   -5.6861   -2.1225   -1.7861 H   0  0  0  0  0  0  0  0  0  0  0  0
   -3.8936   -3.4887   -1.7712 H   0  0  0  0  0  0  0  0  0  0  0  0
   -2.7775   -3.5751   -3.1133 H   0  0  0  0  0  0  0  0  0  0  0  0
   -1.2830   -2.8108   -0.6179 H   0  0  0  0  0  0  0  0  0  0  0  0
    3.1811    1.7225    0.0830 H   0  0  0  0  0  0  0  0  0  0  0  0
    2.3035    3.0465    0.8117 H   0  0  0  0  0  0  0  0  0  0  0  0
  1  2  1  0  0  0  0
  1 25  1  0  0  0  0
  1 26  1  0  0  0  0
  1 27  1  0  0  0  0
  2  3  1  0  0  0  0
  2  4  1  0  0  0  0
  2 24  1  0  0  0  0
  3 28  1  0  0  0  0
  3 29  1  0  0  0  0
  3 30  1  0  0  0  0
  4  5  1  0  0  0  0
  4 31  1  0  0  0  0
  4 32  1  0  0  0  0
  5  6  1  0  0  0  0
  5 18  1  0  0  0  0
  5 33  1  1  0  0  0
  6  7  1  0  0  0  0
  6 34  1  0  0  0  0
  6 35  1  0  0  0  0
  7 19  1  0  0  0  0
  7 36  1  0  0  0  0
  7 37  1  0  0  0  0
  8 19  1  0  0  0  0
  8 17  1  0  0  0  0
  8  9  2  0  0  0  0
  9 10  1  0  0  0  0
  9 39  1  0  0  0  0
 10 40  1  0  0  0  0
 10 11  2  0  0  0  0
 11 12  1  0  0  0  0
 11 16  1  0  0  0  0
 12 20  1  0  0  0  0
 12 41  1  0  0  0  0
 12 42  1  0  0  0  0
 13 20  1  0  0  0  0
 13 14  1  0  0  0  0
 13 43  1  0  0  0  0
 13 44  1  0  0  0  0
 14 21  1  0  0  0  0
 14 22  1  0  0  0  0
 14 23  1  0  0  0  0
 15 20  1  0  0  0  0
 15 16  1  0  0  0  0
 15 45  1  0  0  0  0
 15 46  1  0  0  0  0
 16 17  2  0  0  0  0
 17 47  1  0  0  0  0
 18 24  1  0  0  0  0
 18 48  1  0  0  0  0
 18 49  1  0  0  0  0
 19 38  1  0  0  0  0
M  END
>  <score>
0.44833838939666748

$$$$
Z4416138474
 OpenBabel08202115463D

 51 54  0  0  0  0  0  0  0  0999 V2000
    7.0974    4.5325    2.0203 C   0  0  0  0  0  0  0  0  0  0  0  0
    6.4337    3.7683    3.1381 C   0  0  0  0  0  0  0  0  0  0  0  0
    3.7328    1.6346    1.9751 C   0  0  0  0  0  0  0  0  0  0  0  0
    2.4365    1.7793    1.3409 C   0  0  0  0  0  0  0  0  0  0  0  0
    0.5468    1.5082    0.4933 C   0  0  0  0  0  0  0  0  0  0  0  0
   -0.6913    0.8427    0.0325 C   0  0  0  0  0  0  0  0  0  0  0  0
   -1.7652    1.5704   -0.4439 C   0  0  0  0  0  0  0  0  0  0  0  0
   -2.8970    0.8923   -0.8575 C   0  0  0  0  0  0  0  0  0  0  0  0
   -2.9087   -0.4868   -0.7820 C   0  0  0  0  0  0  0  0  0  0  0  0
   -4.1058   -2.6422   -1.2195 C   0  0  0  0  0  0  0  0  0  0  0  0
   -5.6023   -3.0314   -1.0748 C   0  0  0  0  0  0  0  0  0  0  0  0
   -6.4546   -2.6037   -2.3126 C   0  0  0  0  0  0  0  0  0  0  0  0
   -5.8742   -3.1193   -3.6592 C   0  0  0  0  0  0  0  0  0  0  0  0
   -4.3778   -2.7302   -3.8038 C   0  0  0  0  0  0  0  0  0  0  0  0
   -3.5255   -3.1578   -2.5660 C   0  0  0  0  0  0  0  0  0  0  0  0
   -1.7876   -1.1361   -0.2952 C   0  0  0  0  0  0  0  0  0  0  0  0
    4.1467    0.2912    2.5130 C   0  0  0  0  0  0  0  0  0  0  0  0
    5.6591    0.1118    2.3331 C   0  0  0  0  0  0  0  0  0  0  0  0
    6.3598    1.3574    2.8156 C   0  0  0  0  0  0  0  0  0  0  0  0
    5.7613    2.5560    2.6675 N   0  0  0  0  0  0  0  0  0  0  0  0
    4.5018    2.6481    2.0671 N   0  0  0  0  0  0  0  0  0  0  0  0
    1.5766    0.8337    1.1189 N   0  0  0  0  0  0  0  0  0  0  0  0
   -3.9832   -1.1816   -1.1721 N   0  0  0  0  0  0  0  0  0  0  0  0
   -0.6855   -0.4913    0.1132 N   0  0  0  0  0  0  0  0  0  0  0  0
    0.7482    2.7896    0.3368 N   0  0  0  0  0  0  0  0  0  0  0  0
    2.0182    2.9854    0.9152 O   0  0  0  0  0  0  0  0  0  0  0  0
    7.4605    1.2805    3.3362 O   0  0  0  0  0  0  0  0  0  0  0  0
    7.6286    5.3683    2.4253 H   0  0  0  0  0  0  0  0  0  0  0  0
    6.3526    4.8813    1.3358 H   0  0  0  0  0  0  0  0  0  0  0  0
    7.7818    3.8901    1.5067 H   0  0  0  0  0  0  0  0  0  0  0  0
    5.7094    4.4030    3.6045 H   0  0  0  0  0  0  0  0  0  0  0  0
    7.1792    3.4911    3.8537 H   0  0  0  0  0  0  0  0  0  0  0  0
   -1.7229    2.6085   -0.4905 H   0  0  0  0  0  0  0  0  0  0  0  0
   -3.7233    1.4105   -1.2183 H   0  0  0  0  0  0  0  0  0  0  0  0
   -4.7657   -0.6634   -1.4540 H   0  0  0  0  0  0  0  0  0  0  0  0
   -3.5523   -3.0735   -0.4117 H   0  0  0  0  0  0  0  0  0  0  0  0
   -5.9985   -2.5527   -0.2037 H   0  0  0  0  0  0  0  0  0  0  0  0
   -5.6711   -4.0931   -0.9614 H   0  0  0  0  0  0  0  0  0  0  0  0
   -7.4439   -2.9945   -2.1963 H   0  0  0  0  0  0  0  0  0  0  0  0
   -6.4944   -1.5350   -2.3458 H   0  0  0  0  0  0  0  0  0  0  0  0
   -5.9637   -4.1850   -3.6937 H   0  0  0  0  0  0  0  0  0  0  0  0
   -6.4277   -2.6881   -4.4669 H   0  0  0  0  0  0  0  0  0  0  0  0
   -3.9816   -3.2090   -4.6749 H   0  0  0  0  0  0  0  0  0  0  0  0
   -4.3090   -1.6685   -3.9174 H   0  0  0  0  0  0  0  0  0  0  0  0
   -2.5362   -2.7670   -2.6824 H   0  0  0  0  0  0  0  0  0  0  0  0
   -3.4857   -4.2265   -2.5327 H   0  0  0  0  0  0  0  0  0  0  0  0
   -1.8008   -2.1747   -0.2437 H   0  0  0  0  0  0  0  0  0  0  0  0
    3.6304   -0.4803    1.9809 H   0  0  0  0  0  0  0  0  0  0  0  0
    3.9021    0.2330    3.5531 H   0  0  0  0  0  0  0  0  0  0  0  0
    5.8813   -0.0473    1.2986 H   0  0  0  0  0  0  0  0  0  0  0  0
    5.9911   -0.7306    2.9033 H   0  0  0  0  0  0  0  0  0  0  0  0
  1  2  1  0  0  0  0
  1 28  1  0  0  0  0
  1 29  1  0  0  0  0
  1 30  1  0  0  0  0
  2 20  1  0  0  0  0
  2 31  1  0  0  0  0
  2 32  1  0  0  0  0
  3  4  1  0  0  0  0
  3 17  1  0  0  0  0
  3 21  2  0  0  0  0
  4 26  1  0  0  0  0
  4 22  2  0  0  0  0
  5 22  1  0  0  0  0
  5  6  1  0  0  0  0
  5 25  2  0  0  0  0
  6 24  1  0  0  0  0
  6  7  2  0  0  0  0
  7  8  1  0  0  0  0
  7 33  1  0  0  0  0
  8 34  1  0  0  0  0
  8  9  2  0  0  0  0
  9 23  1  0  0  0  0
  9 16  1  0  0  0  0
 10 23  1  0  0  0  0
 10 11  1  0  0  0  0
 10 15  1  0  0  0  0
 10 36  1  0  0  0  0
 11 12  1  0  0  0  0
 11 37  1  0  0  0  0
 11 38  1  0  0  0  0
 12 13  1  0  0  0  0
 12 39  1  0  0  0  0
 12 40  1  0  0  0  0
 13 14  1  0  0  0  0
 13 41  1  0  0  0  0
 13 42  1  0  0  0  0
 14 15  1  0  0  0  0
 14 43  1  0  0  0  0
 14 44  1  0  0  0  0
 15 45  1  0  0  0  0
 15 46  1  0  0  0  0
 16 47  1  0  0  0  0
 16 24  2  0  0  0  0
 17 18  1  0  0  0  0
 17 48  1  0  0  0  0
 17 49  1  0  0  0  0
 18 19  1  0  0  0  0
 18 50  1  0  0  0  0
 18 51  1  0  0  0  0
 19 20  1  0  0  0  0
 19 27  2  0  0  0  0
 20 21  1  0  0  0  0
 23 35  1  0  0  0  0
 25 26  1  0  0  0  0
M  END
>  <score>
0.44844609498977661

$$$$
PV-004119469172
 OpenBabel08202115463D

 48 51  0  0  0  0  0  0  0  0999 V2000
   -3.5139    1.2548   -2.0706 O   0  0  0  0  0  0  0  0  0  0  0  0
    3.5539    1.8320    1.0237 O   0  0  0  0  0  0  0  0  0  0  0  0
   -3.4067    0.1270   -1.5930 C   0  0  0  0  0  0  0  0  0  0  0  0
   -1.1699    0.4673   -0.6486 C   0  0  0  0  0  0  0  0  0  0  0  0
   -1.2345    1.8426   -0.7701 C   0  0  0  0  0  0  0  0  0  0  0  0
   -0.1264    2.6181   -0.4666 C   0  0  0  0  0  0  0  0  0  0  0  0
    1.0447    2.0157   -0.0475 C   0  0  0  0  0  0  0  0  0  0  0  0
    1.1097    0.6364    0.0745 C   0  0  0  0  0  0  0  0  0  0  0  0
    3.4541    0.6094    0.9361 C   0  0  0  0  0  0  0  0  0  0  0  0
    4.6373   -0.2904    1.2023 C   0  0  2  0  0  0  0  0  0  0  0  0
    4.7594   -0.7786    2.6566 C   0  0  0  0  0  0  0  0  0  0  0  0
    5.6291    0.4574    2.9104 C   0  0  1  0  0  0  0  0  0  0  0  0
    5.9707    0.4473    1.4164 C   0  0  0  0  0  0  0  0  0  0  0  0
    5.3425    1.6528    3.8122 C   0  0  0  0  0  0  0  0  0  0  0  0
    6.5457    0.7484    4.0934 C   0  0  1  0  0  0  0  0  0  0  0  0
    0.0048   -0.1368   -0.2282 C   0  0  0  0  0  0  0  0  0  0  0  0
   -4.4949   -0.8967   -1.7709 C   0  0  0  0  0  0  0  0  0  0  0  0
   -4.2892   -1.5803   -3.1023 C   0  0  0  0  0  0  0  0  0  0  0  0
   -5.3044   -2.6716   -3.3774 C   0  0  0  0  0  0  0  0  0  0  0  0
   -7.0058   -1.1956   -1.7728 C   0  0  0  0  0  0  0  0  0  0  0  0
   -5.8518   -0.1874   -1.6306 C   0  0  0  0  0  0  0  0  0  0  0  0
   -2.2960   -0.3192   -0.9514 N   0  0  0  0  0  0  0  0  0  0  0  0
    2.3316    0.0076    0.5177 N   0  0  0  0  0  0  0  0  0  0  0  0
    6.5400   -0.1007    5.2120 F   0  0  0  0  0  0  0  0  0  0  0  0
   -6.9902   -1.9958   -3.4060 S   0  0  0  0  0  0  0  0  0  0  0  0
   -2.2777   -1.2604   -0.6787 H   0  0  0  0  0  0  0  0  0  0  0  0
   -2.1146    2.2955   -1.0893 H   0  0  0  0  0  0  0  0  0  0  0  0
   -0.1764    3.6532   -0.5542 H   0  0  0  0  0  0  0  0  0  0  0  0
    1.8773    2.5973    0.1764 H   0  0  0  0  0  0  0  0  0  0  0  0
    2.3415   -0.9724    0.5120 H   0  0  0  0  0  0  0  0  0  0  0  0
    4.6688   -1.0663    0.4662 H   0  0  0  0  0  0  0  0  0  0  0  0
    5.2647   -1.7144    2.7745 H   0  0  0  0  0  0  0  0  0  0  0  0
    3.8388   -0.7987    3.2016 H   0  0  0  0  0  0  0  0  0  0  0  0
    6.0258    1.4147    0.9625 H   0  0  0  0  0  0  0  0  0  0  0  0
    6.8422   -0.1179    1.1594 H   0  0  0  0  0  0  0  0  0  0  0  0
    5.4940    2.6471    3.4471 H   0  0  0  0  0  0  0  0  0  0  0  0
    4.4970    1.6381    4.4678 H   0  0  0  0  0  0  0  0  0  0  0  0
    7.5384    1.1106    3.9249 H   0  0  0  0  0  0  0  0  0  0  0  0
    0.0548   -1.1719   -0.1406 H   0  0  0  0  0  0  0  0  0  0  0  0
   -4.4206   -1.6346   -0.9997 H   0  0  0  0  0  0  0  0  0  0  0  0
   -4.3623   -0.8453   -3.8765 H   0  0  0  0  0  0  0  0  0  0  0  0
   -3.3116   -2.0150   -3.1136 H   0  0  0  0  0  0  0  0  0  0  0  0
   -5.2376   -3.4138   -2.6095 H   0  0  0  0  0  0  0  0  0  0  0  0
   -5.0900   -3.1185   -4.3257 H   0  0  0  0  0  0  0  0  0  0  0  0
   -7.9353   -0.6808   -1.6463 H   0  0  0  0  0  0  0  0  0  0  0  0
   -6.9074   -1.9461   -1.0165 H   0  0  0  0  0  0  0  0  0  0  0  0
   -5.9077    0.2778   -0.6687 H   0  0  0  0  0  0  0  0  0  0  0  0
   -5.9398    0.5578   -2.3934 H   0  0  0  0  0  0  0  0  0  0  0  0
  3 22  1  0  0  0  0
  3 17  1  0  0  0  0
  3  1  2  0  0  0  0
  4 22  1  0  0  0  0
  4 16  1  0  0  0  0
  4  5  2  0  0  0  0
  5  6  1  0  0  0  0
  5 27  1  0  0  0  0
  6 28  1  0  0  0  0
  6  7  2  0  0  0  0
  7  8  1  0  0  0  0
  7 29  1  0  0  0  0
  8 23  1  0  0  0  0
  8 16  2  0  0  0  0
  9 23  1  0  0  0  0
  9 10  1  0  0  0  0
  9  2  2  0  0  0  0
 10 11  1  0  0  0  0
 10 13  1  0  0  0  0
 10 31  1  6  0  0  0
 11 32  1  0  0  0  0
 11 33  1  0  0  0  0
 12 11  1  1  0  0  0
 12 13  1  0  0  0  0
 12 14  1  0  0  0  0
 12 15  1  0  0  0  0
 13 34  1  0  0  0  0
 13 35  1  0  0  0  0
 14 15  1  0  0  0  0
 14 36  1  0  0  0  0
 14 37  1  0  0  0  0
 15 24  1  0  0  0  0
 15 38  1  6  0  0  0
 16 39  1  0  0  0  0
 17 18  1  0  0  0  0
 17 21  1  0  0  0  0
 17 40  1  0  0  0  0
 18 19  1  0  0  0  0
 18 41  1  0  0  0  0
 18 42  1  0  0  0  0
 19 25  1  0  0  0  0
 19 43  1  0  0  0  0
 19 44  1  0  0  0  0
 20 25  1  0  0  0  0
 20 21  1  0  0  0  0
 20 45  1  0  0  0  0
 20 46  1  0  0  0  0
 21 47  1  0  0  0  0
 21 48  1  0  0  0  0
 22 26  1  0  0  0  0
 23 30  1  0  0  0  0
M  END
>  <score>
0.44861191511154175

$$$$
Z4876141586
 OpenBabel08202115463D

 58 60  0  0  0  0  0  0  0  0999 V2000
    0.5787   -1.3507   -1.0209 C   0  0  0  0  0  0  0  0  0  0  0  0
   -0.2137   -0.3893   -0.1537 C   0  0  2  0  0  0  0  0  0  0  0  0
    1.7024    0.8138    0.7866 C   0  0  0  0  0  0  0  0  0  0  0  0
    2.5195    2.0914    0.7710 C   0  0  0  0  0  0  0  0  0  0  0  0
    3.7516    2.0361    1.6822 C   0  0  2  0  0  0  0  0  0  0  0  0
    4.5687    0.7719    1.3910 C   0  0  0  0  0  0  0  0  0  0  0  0
    5.8197    0.7781    2.2772 C   0  0  0  0  0  0  0  0  0  0  0  0
    5.8094    2.0386    3.1472 C   0  0  2  0  0  0  0  0  0  0  0  0
    4.5680    2.0292    4.0440 C   0  0  0  0  0  0  0  0  0  0  0  0
    3.3149    2.0254    3.1623 C   0  0  0  0  0  0  0  0  0  0  0  0
    4.6393    3.2633    1.4466 C   0  0  0  0  0  0  0  0  0  0  0  0
   -1.6450   -0.2115   -0.6409 C   0  0  0  0  0  0  0  0  0  0  0  0
   -3.6101   -1.3782   -1.5541 C   0  0  0  0  0  0  0  0  0  0  0  0
   -5.2468   -2.8510   -2.5581 C   0  0  0  0  0  0  0  0  0  0  0  0
   -5.1580   -2.0938   -3.8731 C   0  0  0  0  0  0  0  0  0  0  0  0
   -6.2604   -2.2336   -1.6277 C   0  0  0  0  0  0  0  0  0  0  0  0
   -5.5335   -4.3148   -2.7699 C   0  0  0  0  0  0  0  0  0  0  0  0
   -1.9347    0.8987   -1.6015 C   0  0  0  0  0  0  0  0  0  0  0  0
   -2.3658    1.0125   -0.1697 C   0  0  0  0  0  0  0  0  0  0  0  0
    0.4707    0.9173   -0.0365 N   0  0  0  0  0  0  0  0  0  0  0  0
   -2.4530   -1.4035   -0.8514 N   0  0  0  0  0  0  0  0  0  0  0  0
    5.7785    3.1943    2.3069 O   0  0  0  0  0  0  0  0  0  0  0  0
   -4.2245   -0.3999   -1.8974 O   0  0  0  0  0  0  0  0  0  0  0  0
   -3.9800   -2.6537   -1.8185 O   0  0  0  0  0  0  0  0  0  0  0  0
    0.7031   -0.9313   -1.9974 H   0  0  0  0  0  0  0  0  0  0  0  0
    0.0524   -2.2793   -1.0963 H   0  0  0  0  0  0  0  0  0  0  0  0
    1.5391   -1.5192   -0.5804 H   0  0  0  0  0  0  0  0  0  0  0  0
   -0.2646   -0.8156    0.8264 H   0  0  0  0  0  0  0  0  0  0  0  0
   -0.1393    1.5598    0.3825 H   0  0  0  0  0  0  0  0  0  0  0  0
    2.3048    0.0165    0.4039 H   0  0  0  0  0  0  0  0  0  0  0  0
    1.4231    0.5974    1.7965 H   0  0  0  0  0  0  0  0  0  0  0  0
    1.8946    2.8977    1.0939 H   0  0  0  0  0  0  0  0  0  0  0  0
    2.8468    2.2725   -0.2315 H   0  0  0  0  0  0  0  0  0  0  0  0
    4.8578    0.7600    0.3609 H   0  0  0  0  0  0  0  0  0  0  0  0
    3.9795   -0.0948    1.6067 H   0  0  0  0  0  0  0  0  0  0  0  0
    5.8198   -0.0896    2.9033 H   0  0  0  0  0  0  0  0  0  0  0  0
    6.6950    0.7746    1.6618 H   0  0  0  0  0  0  0  0  0  0  0  0
    6.6849    2.0459    3.7623 H   0  0  0  0  0  0  0  0  0  0  0  0
    4.5672    2.9010    4.6643 H   0  0  0  0  0  0  0  0  0  0  0  0
    4.5764    1.1535    4.6587 H   0  0  0  0  0  0  0  0  0  0  0  0
    2.7258    2.8941    3.3702 H   0  0  0  0  0  0  0  0  0  0  0  0
    2.7377    1.1466    3.3610 H   0  0  0  0  0  0  0  0  0  0  0  0
    4.0837    4.1525    1.6600 H   0  0  0  0  0  0  0  0  0  0  0  0
    4.9623    3.2801    0.4266 H   0  0  0  0  0  0  0  0  0  0  0  0
   -2.1491   -2.2541   -0.4713 H   0  0  0  0  0  0  0  0  0  0  0  0
   -4.9472   -1.0631   -3.6782 H   0  0  0  0  0  0  0  0  0  0  0  0
   -6.0888   -2.1749   -4.3946 H   0  0  0  0  0  0  0  0  0  0  0  0
   -4.3755   -2.5106   -4.4722 H   0  0  0  0  0  0  0  0  0  0  0  0
   -6.2500   -2.7534   -0.6925 H   0  0  0  0  0  0  0  0  0  0  0  0
   -7.2347   -2.3048   -2.0642 H   0  0  0  0  0  0  0  0  0  0  0  0
   -6.0157   -1.2046   -1.4662 H   0  0  0  0  0  0  0  0  0  0  0  0
   -5.7758   -4.4862   -3.7979 H   0  0  0  0  0  0  0  0  0  0  0  0
   -6.3585   -4.6089   -2.1553 H   0  0  0  0  0  0  0  0  0  0  0  0
   -4.6696   -4.8888   -2.5068 H   0  0  0  0  0  0  0  0  0  0  0  0
   -2.6656    0.7632   -2.3711 H   0  0  0  0  0  0  0  0  0  0  0  0
   -1.1368    1.5090   -1.9701 H   0  0  0  0  0  0  0  0  0  0  0  0
   -1.8755    1.7040    0.4833 H   0  0  0  0  0  0  0  0  0  0  0  0
   -3.4043    0.9582    0.0823 H   0  0  0  0  0  0  0  0  0  0  0  0
  1  2  1  0  0  0  0
  1 25  1  0  0  0  0
  1 26  1  0  0  0  0
  1 27  1  0  0  0  0
  2 20  1  0  0  0  0
  2 12  1  0  0  0  0
  2 28  1  1  0  0  0
  3 20  1  0  0  0  0
  3  4  1  0  0  0  0
  3 30  1  0  0  0  0
  3 31  1  0  0  0  0
  4 32  1  0  0  0  0
  4 33  1  0  0  0  0
  5  4  1  6  0  0  0
  5  6  1  0  0  0  0
  5 10  1  0  0  0  0
  5 11  1  0  0  0  0
  6  7  1  0  0  0  0
  6 34  1  0  0  0  0
  6 35  1  0  0  0  0
  7  8  1  0  0  0  0
  7 36  1  0  0  0  0
  7 37  1  0  0  0  0
  8  9  1  0  0  0  0
  8 22  1  0  0  0  0
  8 38  1  1  0  0  0
  9 10  1  0  0  0  0
  9 39  1  0  0  0  0
  9 40  1  0  0  0  0
 10 41  1  0  0  0  0
 10 42  1  0  0  0  0
 11 22  1  0  0  0  0
 11 43  1  0  0  0  0
 11 44  1  0  0  0  0
 12 21  1  0  0  0  0
 12 18  1  0  0  0  0
 12 19  1  0  0  0  0
 13 21  1  0  0  0  0
 13 24  1  0  0  0  0
 13 23  2  0  0  0  0
 14 24  1  0  0  0  0
 14 15  1  0  0  0  0
 14 16  1  0  0  0  0
 14 17  1  0  0  0  0
 15 46  1  0  0  0  0
 15 47  1  0  0  0  0
 15 48  1  0  0  0  0
 16 49  1  0  0  0  0
 16 50  1  0  0  0  0
 16 51  1  0  0  0  0
 17 52  1  0  0  0  0
 17 53  1  0  0  0  0
 17 54  1  0  0  0  0
 18 19  1  0  0  0  0
 18 55  1  0  0  0  0
 18 56  1  0  0  0  0
 19 57  1  0  0  0  0
 19 58  1  0  0  0  0
 20 29  1  0  0  0  0
 21 45  1  0  0  0  0
M  END
>  <score>
0.44865173101425171

$$$$
PV-003507667470
 OpenBabel08202115463D

 50 53  0  0  0  0  0  0  0  0999 V2000
   -2.8042   -2.4306   -1.6185 C   0  0  0  0  0  0  0  0  0  0  0  0
   -3.5470   -1.2598   -2.2176 C   0  0  0  0  0  0  0  0  0  0  0  0
   -4.6836   -1.2371   -2.9355 C   0  0  0  0  0  0  0  0  0  0  0  0
   -5.6582   -2.2813   -3.4350 C   0  0  0  0  0  0  0  0  0  0  0  0
   -6.5929   -1.9174   -4.5457 C   0  0  0  0  0  0  0  0  0  0  0  0
   -7.1117   -2.0492   -3.1483 C   0  0  0  0  0  0  0  0  0  0  0  0
   -3.1457    0.0983   -2.1178 C   0  0  0  0  0  0  0  0  0  0  0  0
   -1.9730    0.6894   -1.4429 C   0  0  0  0  0  0  0  0  0  0  0  0
   -0.2382    0.8488   -0.3130 C   0  0  0  0  0  0  0  0  0  0  0  0
    0.9713    0.4772    0.4532 C   0  0  0  0  0  0  0  0  0  0  0  0
    1.3560   -0.8423    0.5959 C   0  0  0  0  0  0  0  0  0  0  0  0
    2.4945   -1.1279    1.3265 C   0  0  0  0  0  0  0  0  0  0  0  0
    3.2056   -0.0823    1.8823 C   0  0  0  0  0  0  0  0  0  0  0  0
    5.2315    0.6123    3.2223 C   0  0  0  0  0  0  0  0  0  0  0  0
    6.3898   -0.1453    3.8748 C   0  0  0  0  0  0  0  0  0  0  0  0
    4.4600    1.3946    4.2871 C   0  0  0  0  0  0  0  0  0  0  0  0
    5.7622    1.5656    2.1640 C   0  0  0  0  0  0  0  0  0  0  0  0
    2.7508    1.2100    1.6866 C   0  0  0  0  0  0  0  0  0  0  0  0
   -2.5132    3.1293   -1.6539 C   0  0  0  0  0  0  0  0  0  0  0  0
   -4.9868    0.0431   -3.2658 O   0  0  0  0  0  0  0  0  0  0  0  0
   -3.9877    0.8911   -2.7405 N   0  0  0  0  0  0  0  0  0  0  0  0
   -1.0438   -0.0641   -0.8844 N   0  0  0  0  0  0  0  0  0  0  0  0
    4.3059   -0.3690    2.5870 N   0  0  0  0  0  0  0  0  0  0  0  0
    1.6465    1.5010    0.9844 N   0  0  0  0  0  0  0  0  0  0  0  0
   -0.5962    2.1084   -0.4793 N   0  0  0  0  0  0  0  0  0  0  0  0
   -1.7314    1.9780   -1.2158 N   0  0  0  0  0  0  0  0  0  0  0  0
   -1.7767   -2.1673   -1.4774 H   0  0  0  0  0  0  0  0  0  0  0  0
   -2.8696   -3.2699   -2.2789 H   0  0  0  0  0  0  0  0  0  0  0  0
   -3.2400   -2.6839   -0.6747 H   0  0  0  0  0  0  0  0  0  0  0  0
   -5.3212   -3.2965   -3.4056 H   0  0  0  0  0  0  0  0  0  0  0  0
   -6.8550   -2.6462   -5.2840 H   0  0  0  0  0  0  0  0  0  0  0  0
   -6.5291   -0.9523   -5.0034 H   0  0  0  0  0  0  0  0  0  0  0  0
   -7.4178   -1.1784   -2.6070 H   0  0  0  0  0  0  0  0  0  0  0  0
   -7.7437   -2.8723   -2.8877 H   0  0  0  0  0  0  0  0  0  0  0  0
    0.7995   -1.6063    0.1618 H   0  0  0  0  0  0  0  0  0  0  0  0
    2.8093   -2.1107    1.4551 H   0  0  0  0  0  0  0  0  0  0  0  0
    4.5253   -1.3179    2.6966 H   0  0  0  0  0  0  0  0  0  0  0  0
    7.0280    0.5470    4.3831 H   0  0  0  0  0  0  0  0  0  0  0  0
    6.9494   -0.6586    3.1210 H   0  0  0  0  0  0  0  0  0  0  0  0
    6.0019   -0.8539    4.5764 H   0  0  0  0  0  0  0  0  0  0  0  0
    4.1780    0.7348    5.0808 H   0  0  0  0  0  0  0  0  0  0  0  0
    3.5819    1.8214    3.8494 H   0  0  0  0  0  0  0  0  0  0  0  0
    5.0807    2.1748    4.6758 H   0  0  0  0  0  0  0  0  0  0  0  0
    6.2502    1.0071    1.3927 H   0  0  0  0  0  0  0  0  0  0  0  0
    6.4610    2.2413    2.6112 H   0  0  0  0  0  0  0  0  0  0  0  0
    4.9492    2.1194    1.7431 H   0  0  0  0  0  0  0  0  0  0  0  0
    3.2920    1.9936    2.1046 H   0  0  0  0  0  0  0  0  0  0  0  0
   -2.5200    3.8709   -0.8825 H   0  0  0  0  0  0  0  0  0  0  0  0
   -3.5168    2.8209   -1.8605 H   0  0  0  0  0  0  0  0  0  0  0  0
   -2.0764    3.5406   -2.5398 H   0  0  0  0  0  0  0  0  0  0  0  0
  1  2  1  0  0  0  0
  1 27  1  0  0  0  0
  1 28  1  0  0  0  0
  1 29  1  0  0  0  0
  2  7  1  0  0  0  0
  2  3  2  0  0  0  0
  3  4  1  0  0  0  0
  3 20  1  0  0  0  0
  4  5  1  0  0  0  0
  4  6  1  0  0  0  0
  4 30  1  0  0  0  0
  5  6  1  0  0  0  0
  5 31  1  0  0  0  0
  5 32  1  0  0  0  0
  6 33  1  0  0  0  0
  6 34  1  0  0  0  0
  7  8  1  0  0  0  0
  7 21  2  0  0  0  0
  8 26  1  0  0  0  0
  8 22  2  0  0  0  0
  9 22  1  0  0  0  0
  9 10  1  0  0  0  0
  9 25  2  0  0  0  0
 10 24  1  0  0  0  0
 10 11  2  0  0  0  0
 11 12  1  0  0  0  0
 11 35  1  0  0  0  0
 12 36  1  0  0  0  0
 12 13  2  0  0  0  0
 13 23  1  0  0  0  0
 13 18  1  0  0  0  0
 14 23  1  0  0  0  0
 14 15  1  0  0  0  0
 14 16  1  0  0  0  0
 14 17  1  0  0  0  0
 15 38  1  0  0  0  0
 15 39  1  0  0  0  0
 15 40  1  0  0  0  0
 16 41  1  0  0  0  0
 16 42  1  0  0  0  0
 16 43  1  0  0  0  0
 17 44  1  0  0  0  0
 17 45  1  0  0  0  0
 17 46  1  0  0  0  0
 18 47  1  0  0  0  0
 18 24  2  0  0  0  0
 19 26  1  0  0  0  0
 19 48  1  0  0  0  0
 19 49  1  0  0  0  0
 19 50  1  0  0  0  0
 21 20  1  0  0  0  0
 23 37  1  0  0  0  0
 25 26  1  0  0  0  0
M  END
>  <score>
0.4486534595489502

$$$$
PV-003727596007
 OpenBabel08202115463D

 57 59  0  0  0  0  0  0  0  0999 V2000
   -5.8640   -3.8325   -3.6402 C   0  0  0  0  0  0  0  0  0  0  0  0
   -7.7121   -2.0831   -3.4835 C   0  0  0  0  0  0  0  0  0  0  0  0
   -6.6207   -0.3921   -2.7493 C   0  0  0  0  0  0  0  0  0  0  0  0
   -6.2062    0.8589   -2.2849 C   0  0  0  0  0  0  0  0  0  0  0  0
   -4.8726    1.0109   -1.9785 C   0  0  0  0  0  0  0  0  0  0  0  0
   -3.9649   -0.0396   -2.1165 C   0  0  0  0  0  0  0  0  0  0  0  0
   -1.6464   -0.7480   -1.6521 C   0  0  0  0  0  0  0  0  0  0  0  0
   -0.2598   -0.2122   -1.3529 C   0  0  2  0  0  0  0  0  0  0  0  0
    0.2123   -0.7268   -0.0066 C   0  0  0  0  0  0  0  0  0  0  0  0
    1.6189   -0.2470    0.3680 C   0  0  1  0  0  0  0  0  0  0  0  0
    1.5682    1.2378    0.7362 C   0  0  0  0  0  0  0  0  0  0  0  0
    2.8824    1.7611    1.2547 C   0  0  0  0  0  0  0  0  0  0  0  0
    3.3917    0.9507    2.4394 C   0  0  2  0  0  0  0  0  0  0  0  0
    4.7940    1.4334    2.8289 C   0  0  0  0  0  0  0  0  0  0  0  0
    5.2121    0.7923    4.1576 C   0  0  0  0  0  0  0  0  0  0  0  0
    4.8116    2.9600    2.9685 C   0  0  0  0  0  0  0  0  0  0  0  0
    5.8468    1.0356    1.7876 C   0  0  0  0  0  0  0  0  0  0  0  0
    3.4489   -0.5304    2.0380 C   0  0  0  0  0  0  0  0  0  0  0  0
    2.1209   -1.0410    1.5345 C   0  0  0  0  0  0  0  0  0  0  0  0
   -4.3527   -1.2815   -2.5733 C   0  0  0  0  0  0  0  0  0  0  0  0
   -5.6999   -1.4367   -2.8912 C   0  0  0  0  0  0  0  0  0  0  0  0
   -6.4252   -2.5113   -3.3564 N   0  0  0  0  0  0  0  0  0  0  0  0
   -7.8867   -0.8231   -3.1232 N   0  0  0  0  0  0  0  0  0  0  0  0
   -2.6131    0.1747   -1.7795 N   0  0  0  0  0  0  0  0  0  0  0  0
   -1.8515   -1.9452   -1.7664 O   0  0  0  0  0  0  0  0  0  0  0  0
   -0.1779    1.2008   -1.3565 O   0  0  0  0  0  0  0  0  0  0  0  0
   -5.1501   -4.0871   -2.8850 H   0  0  0  0  0  0  0  0  0  0  0  0
   -5.3823   -3.8174   -4.5955 H   0  0  0  0  0  0  0  0  0  0  0  0
   -6.6493   -4.5592   -3.6477 H   0  0  0  0  0  0  0  0  0  0  0  0
   -8.4829   -2.6889   -3.8305 H   0  0  0  0  0  0  0  0  0  0  0  0
   -6.8788    1.6445   -2.1750 H   0  0  0  0  0  0  0  0  0  0  0  0
   -4.5333    1.9321   -1.6354 H   0  0  0  0  0  0  0  0  0  0  0  0
   -2.3484    1.1046   -1.6198 H   0  0  0  0  0  0  0  0  0  0  0  0
    0.4054   -0.6008   -2.0954 H   0  0  0  0  0  0  0  0  0  0  0  0
   -0.4947    1.4934   -0.4988 H   0  0  0  0  0  0  0  0  0  0  0  0
    0.2149   -1.7964   -0.0342 H   0  0  0  0  0  0  0  0  0  0  0  0
   -0.4720   -0.3905    0.7441 H   0  0  0  0  0  0  0  0  0  0  0  0
    2.2767   -0.3843   -0.4647 H   0  0  0  0  0  0  0  0  0  0  0  0
    1.2992    1.7962   -0.1360 H   0  0  0  0  0  0  0  0  0  0  0  0
    0.8240    1.3761    1.4924 H   0  0  0  0  0  0  0  0  0  0  0  0
    3.6067    1.7157    0.4684 H   0  0  0  0  0  0  0  0  0  0  0  0
    2.7522    2.7777    1.5621 H   0  0  0  0  0  0  0  0  0  0  0  0
    2.7284    1.0727    3.2701 H   0  0  0  0  0  0  0  0  0  0  0  0
    5.0876   -0.2687    4.0971 H   0  0  0  0  0  0  0  0  0  0  0  0
    4.6018    1.1783    4.9472 H   0  0  0  0  0  0  0  0  0  0  0  0
    6.2386    1.0200    4.3558 H   0  0  0  0  0  0  0  0  0  0  0  0
    4.1249    3.2567    3.7335 H   0  0  0  0  0  0  0  0  0  0  0  0
    4.5246    3.4062    2.0393 H   0  0  0  0  0  0  0  0  0  0  0  0
    5.7977    3.2826    3.2301 H   0  0  0  0  0  0  0  0  0  0  0  0
    5.9130   -0.0312    1.7362 H   0  0  0  0  0  0  0  0  0  0  0  0
    6.7970    1.4385    2.0696 H   0  0  0  0  0  0  0  0  0  0  0  0
    5.5649    1.4217    0.8303 H   0  0  0  0  0  0  0  0  0  0  0  0
    4.1783   -0.6488    1.2642 H   0  0  0  0  0  0  0  0  0  0  0  0
    3.7373   -1.1070    2.8919 H   0  0  0  0  0  0  0  0  0  0  0  0
    1.4048   -0.9801    2.3272 H   0  0  0  0  0  0  0  0  0  0  0  0
    2.2351   -2.0615    1.2338 H   0  0  0  0  0  0  0  0  0  0  0  0
   -3.6738   -2.0627   -2.6753 H   0  0  0  0  0  0  0  0  0  0  0  0
  1 22  1  0  0  0  0
  1 27  1  0  0  0  0
  1 28  1  0  0  0  0
  1 29  1  0  0  0  0
  2 22  1  0  0  0  0
  2 30  1  0  0  0  0
  2 23  2  0  0  0  0
  3 23  1  0  0  0  0
  3 21  1  0  0  0  0
  3  4  2  0  0  0  0
  4  5  1  0  0  0  0
  4 31  1  0  0  0  0
  5 32  1  0  0  0  0
  5  6  2  0  0  0  0
  6 24  1  0  0  0  0
  6 20  1  0  0  0  0
  7 24  1  0  0  0  0
  7  8  1  0  0  0  0
  7 25  2  0  0  0  0
  8 26  1  0  0  0  0
  8  9  1  0  0  0  0
  8 34  1  6  0  0  0
  9 10  1  0  0  0  0
  9 36  1  0  0  0  0
  9 37  1  0  0  0  0
 10 11  1  0  0  0  0
 10 19  1  0  0  0  0
 10 38  1  6  0  0  0
 11 12  1  0  0  0  0
 11 39  1  0  0  0  0
 11 40  1  0  0  0  0
 12 13  1  0  0  0  0
 12 41  1  0  0  0  0
 12 42  1  0  0  0  0
 13 14  1  0  0  0  0
 13 18  1  0  0  0  0
 13 43  1  1  0  0  0
 14 15  1  0  0  0  0
 14 16  1  0  0  0  0
 14 17  1  0  0  0  0
 15 44  1  0  0  0  0
 15 45  1  0  0  0  0
 15 46  1  0  0  0  0
 16 47  1  0  0  0  0
 16 48  1  0  0  0  0
 16 49  1  0  0  0  0
 17 50  1  0  0  0  0
 17 51  1  0  0  0  0
 17 52  1  0  0  0  0
 18 19  1  0  0  0  0
 18 53  1  0  0  0  0
 18 54  1  0  0  0  0
 19 55  1  0  0  0  0
 19 56  1  0  0  0  0
 20 57  1  0  0  0  0
 20 21  2  0  0  0  0
 21 22  1  0  0  0  0
 24 33  1  0  0  0  0
 26 35  1  0  0  0  0
M  END
>  <score>
0.44875818490982056

$$$$
PV-003489122747
 OpenBabel08202115463D

 49 51  0  0  0  0  0  0  0  0999 V2000
   -3.0162   -2.4340   -4.2654 C   0  0  0  0  0  0  0  0  0  0  0  0
   -4.3466   -2.4402   -3.5725 C   0  0  0  0  0  0  0  0  0  0  0  0
   -5.4899   -2.3613   -4.3164 C   0  0  0  0  0  0  0  0  0  0  0  0
   -6.7365   -2.3621   -3.6876 C   0  0  0  0  0  0  0  0  0  0  0  0
   -6.7456   -2.4383   -2.2928 C   0  0  0  0  0  0  0  0  0  0  0  0
   -5.5729   -2.5292   -1.5914 C   0  0  0  0  0  0  0  0  0  0  0  0
   -3.1483   -2.6072   -1.4636 C   0  0  0  0  0  0  0  0  0  0  0  0
   -2.5124   -1.2527   -1.3468 C   0  0  0  0  0  0  0  0  0  0  0  0
   -0.5358   -0.0982   -0.3469 C   0  0  0  0  0  0  0  0  0  0  0  0
   -0.8417    1.1513   -0.8632 C   0  0  0  0  0  0  0  0  0  0  0  0
   -0.0292    2.2333   -0.5812 C   0  0  0  0  0  0  0  0  0  0  0  0
    1.0886    2.0700    0.2223 C   0  0  0  0  0  0  0  0  0  0  0  0
    1.3934    0.8239    0.7369 C   0  0  0  0  0  0  0  0  0  0  0  0
    3.2884    1.6146    2.1621 C   0  0  0  0  0  0  0  0  0  0  0  0
    4.4972    1.2308    2.9252 C   0  0  1  0  0  0  0  0  0  0  0  0
    5.8428    1.5116    2.2658 C   0  0  0  0  0  0  0  0  0  0  0  0
    6.3847    2.0499    3.6056 C   0  0  0  0  0  0  0  0  0  0  0  0
    4.9549    2.0775    4.1606 C   0  0  1  0  0  0  0  0  0  0  0  0
    4.3316    3.4769    4.2349 C   0  0  0  0  0  0  0  0  0  0  0  0
    0.5786   -0.2612    0.4541 C   0  0  0  0  0  0  0  0  0  0  0  0
   -7.7727   -2.2991   -4.3285 O   0  0  0  0  0  0  0  0  0  0  0  0
   -2.9715   -0.2410   -1.8423 O   0  0  0  0  0  0  0  0  0  0  0  0
    2.9280    2.7722    2.0513 O   0  0  0  0  0  0  0  0  0  0  0  0
   -4.3912   -2.5232   -2.2301 N   0  0  0  0  0  0  0  0  0  0  0  0
   -1.3586   -1.1990   -0.6380 N   0  0  0  0  0  0  0  0  0  0  0  0
    2.5577    0.6531    1.5671 N   0  0  0  0  0  0  0  0  0  0  0  0
   -2.5487   -3.3895   -4.1494 H   0  0  0  0  0  0  0  0  0  0  0  0
   -2.3935   -1.6779   -3.8347 H   0  0  0  0  0  0  0  0  0  0  0  0
   -3.1574   -2.2303   -5.3063 H   0  0  0  0  0  0  0  0  0  0  0  0
   -5.4315   -2.3006   -5.3530 H   0  0  0  0  0  0  0  0  0  0  0  0
   -7.6516   -2.4258   -1.7822 H   0  0  0  0  0  0  0  0  0  0  0  0
   -5.5974   -2.6036   -0.5544 H   0  0  0  0  0  0  0  0  0  0  0  0
   -2.4726   -3.2721   -1.9599 H   0  0  0  0  0  0  0  0  0  0  0  0
   -3.3628   -2.9814   -0.4844 H   0  0  0  0  0  0  0  0  0  0  0  0
   -1.0526   -2.0560   -0.2742 H   0  0  0  0  0  0  0  0  0  0  0  0
   -1.6825    1.2747   -1.4627 H   0  0  0  0  0  0  0  0  0  0  0  0
   -0.2564    3.1700   -0.9718 H   0  0  0  0  0  0  0  0  0  0  0  0
    1.6977    2.8849    0.4378 H   0  0  0  0  0  0  0  0  0  0  0  0
    2.8521   -0.2697    1.7161 H   0  0  0  0  0  0  0  0  0  0  0  0
    4.4442    0.2003    3.2082 H   0  0  0  0  0  0  0  0  0  0  0  0
    6.3463    0.6368    1.9106 H   0  0  0  0  0  0  0  0  0  0  0  0
    5.8028    2.2424    1.4852 H   0  0  0  0  0  0  0  0  0  0  0  0
    6.8465    3.0126    3.5363 H   0  0  0  0  0  0  0  0  0  0  0  0
    7.0399    1.3754    4.1160 H   0  0  0  0  0  0  0  0  0  0  0  0
    4.8372    1.5837    5.1025 H   0  0  0  0  0  0  0  0  0  0  0  0
    4.3127    3.9118    3.2574 H   0  0  0  0  0  0  0  0  0  0  0  0
    4.9145    4.0925    4.8877 H   0  0  0  0  0  0  0  0  0  0  0  0
    3.3328    3.4027    4.6113 H   0  0  0  0  0  0  0  0  0  0  0  0
    0.8058   -1.1979    0.8447 H   0  0  0  0  0  0  0  0  0  0  0  0
  1  2  1  0  0  0  0
  1 27  1  0  0  0  0
  1 28  1  0  0  0  0
  1 29  1  0  0  0  0
  2 24  1  0  0  0  0
  2  3  2  0  0  0  0
  3  4  1  0  0  0  0
  3 30  1  0  0  0  0
  4  5  1  0  0  0  0
  4 21  2  0  0  0  0
  5 31  1  0  0  0  0
  5  6  2  0  0  0  0
  6 24  1  0  0  0  0
  6 32  1  0  0  0  0
  7 24  1  0  0  0  0
  7  8  1  0  0  0  0
  7 33  1  0  0  0  0
  7 34  1  0  0  0  0
  8 25  1  0  0  0  0
  8 22  2  0  0  0  0
  9 25  1  0  0  0  0
  9 20  1  0  0  0  0
  9 10  2  0  0  0  0
 10 11  1  0  0  0  0
 10 36  1  0  0  0  0
 11 37  1  0  0  0  0
 11 12  2  0  0  0  0
 12 13  1  0  0  0  0
 12 38  1  0  0  0  0
 13 26  1  0  0  0  0
 13 20  2  0  0  0  0
 14 26  1  0  0  0  0
 14 15  1  0  0  0  0
 14 23  2  0  0  0  0
 15 16  1  0  0  0  0
 15 18  1  0  0  0  0
 15 40  1  1  0  0  0
 16 17  1  0  0  0  0
 16 41  1  0  0  0  0
 16 42  1  0  0  0  0
 17 18  1  0  0  0  0
 17 43  1  0  0  0  0
 17 44  1  0  0  0  0
 18 19  1  0  0  0  0
 18 45  1  1  0  0  0
 19 46  1  0  0  0  0
 19 47  1  0  0  0  0
 19 48  1  0  0  0  0
 20 49  1  0  0  0  0
 25 35  1  0  0  0  0
 26 39  1  0  0  0  0
M  END
>  <score>
0.44880950450897217

$$$$
PV-004088767584
 OpenBabel08202115463D

 57 59  0  0  0  0  0  0  0  0999 V2000
   -6.9702   -4.0102   -3.2190 C   0  0  0  0  0  0  0  0  0  0  0  0
   -6.1263   -2.7664   -2.9292 C   0  0  0  0  0  0  0  0  0  0  0  0
   -5.7616   -2.0544   -4.2216 C   0  0  0  0  0  0  0  0  0  0  0  0
   -4.9407   -3.1248   -2.1117 C   0  0  0  0  0  0  0  0  0  0  0  0
   -4.4501   -4.2720   -1.6138 C   0  0  0  0  0  0  0  0  0  0  0  0
   -3.2607   -3.9297   -0.9152 C   0  0  0  0  0  0  0  0  0  0  0  0
   -3.1163   -2.6004   -1.0280 C   0  0  0  0  0  0  0  0  0  0  0  0
   -2.1384   -1.6363   -0.4364 C   0  0  0  0  0  0  0  0  0  0  0  0
   -1.3302    0.6511   -0.3114 C   0  0  0  0  0  0  0  0  0  0  0  0
    0.0402    0.6258   -0.9519 C   0  0  0  0  0  0  0  0  0  0  0  0
    0.8999    2.9616   -1.1438 C   0  0  0  0  0  0  0  0  0  0  0  0
    1.7013    1.4679    0.6257 C   0  0  0  0  0  0  0  0  0  0  0  0
    2.3182    2.6990    1.2447 C   0  0  1  0  0  0  0  0  0  0  0  0
    2.0430    2.6963    2.7468 C   0  0  0  0  0  0  0  0  0  0  0  0
    2.7752    1.5598    3.4301 C   0  0  0  0  0  0  0  0  0  0  0  0
    5.0557    0.6226    3.7391 C   0  0  0  0  0  0  0  0  0  0  0  0
    6.3437    0.7346    2.9629 C   0  0  0  0  0  0  0  0  0  0  0  0
    5.9798    1.4247    1.6372 C   0  0  0  0  0  0  0  0  0  0  0  0
    4.4647    1.5424    1.7102 C   0  0  2  0  0  0  0  0  0  0  0  0
    3.8136    2.6979    0.9734 C   0  0  0  0  0  0  0  0  0  0  0  0
   -1.2855   -2.0148    0.3496 O   0  0  0  0  0  0  0  0  0  0  0  0
    1.9127    0.3562    1.0816 O   0  0  0  0  0  0  0  0  0  0  0  0
   -4.1413   -2.0675   -1.7680 O   0  0  0  0  0  0  0  0  0  0  0  0
   -2.2568   -0.3500   -0.8185 N   0  0  0  0  0  0  0  0  0  0  0  0
    0.9179    1.6827   -0.4431 N   0  0  0  0  0  0  0  0  0  0  0  0
    4.2026    1.6633    3.1509 N   0  0  1  0  0  0  0  0  0  0  0  0
   -6.4754   -4.6153   -3.9497 H   0  0  0  0  0  0  0  0  0  0  0  0
   -7.9277   -3.7123   -3.5923 H   0  0  0  0  0  0  0  0  0  0  0  0
   -7.0975   -4.5726   -2.3176 H   0  0  0  0  0  0  0  0  0  0  0  0
   -6.7285   -2.0976   -2.3504 H   0  0  0  0  0  0  0  0  0  0  0  0
   -5.2521   -2.7340   -4.8723 H   0  0  0  0  0  0  0  0  0  0  0  0
   -5.1233   -1.2238   -4.0031 H   0  0  0  0  0  0  0  0  0  0  0  0
   -6.6527   -1.7040   -4.6992 H   0  0  0  0  0  0  0  0  0  0  0  0
   -4.8595   -5.2222   -1.7188 H   0  0  0  0  0  0  0  0  0  0  0  0
   -2.6255   -4.5828   -0.4137 H   0  0  0  0  0  0  0  0  0  0  0  0
   -2.9683   -0.0878   -1.4393 H   0  0  0  0  0  0  0  0  0  0  0  0
   -1.2097    0.4915    0.7398 H   0  0  0  0  0  0  0  0  0  0  0  0
   -1.7587    1.6171   -0.4792 H   0  0  0  0  0  0  0  0  0  0  0  0
   -0.0728    0.7528   -2.0083 H   0  0  0  0  0  0  0  0  0  0  0  0
    0.4943   -0.3224   -0.7528 H   0  0  0  0  0  0  0  0  0  0  0  0
    0.1064    3.5682   -0.7598 H   0  0  0  0  0  0  0  0  0  0  0  0
    0.7458    2.7932   -2.1892 H   0  0  0  0  0  0  0  0  0  0  0  0
    1.8342    3.4619   -0.9965 H   0  0  0  0  0  0  0  0  0  0  0  0
    1.8828    3.5741    0.8094 H   0  0  0  0  0  0  0  0  0  0  0  0
    2.3712    3.6252    3.1643 H   0  0  0  0  0  0  0  0  0  0  0  0
    0.9915    2.5833    2.9097 H   0  0  0  0  0  0  0  0  0  0  0  0
    2.4066    0.6255    3.0612 H   0  0  0  0  0  0  0  0  0  0  0  0
    2.6135    1.6156    4.4863 H   0  0  0  0  0  0  0  0  0  0  0  0
    4.6177   -0.3456    3.6135 H   0  0  0  0  0  0  0  0  0  0  0  0
    5.2204    0.8077    4.7800 H   0  0  0  0  0  0  0  0  0  0  0  0
    6.7513   -0.2370    2.7767 H   0  0  0  0  0  0  0  0  0  0  0  0
    7.0546    1.3224    3.5051 H   0  0  0  0  0  0  0  0  0  0  0  0
    6.2782    0.8288    0.8002 H   0  0  0  0  0  0  0  0  0  0  0  0
    6.4365    2.3900    1.5694 H   0  0  0  0  0  0  0  0  0  0  0  0
    4.0372    0.6285    1.3523 H   0  0  0  0  0  0  0  0  0  0  0  0
    3.9845    2.5914   -0.0774 H   0  0  0  0  0  0  0  0  0  0  0  0
    4.2374    3.6201    1.3125 H   0  0  0  0  0  0  0  0  0  0  0  0
  1  2  1  0  0  0  0
  1 27  1  0  0  0  0
  1 28  1  0  0  0  0
  1 29  1  0  0  0  0
  2  3  1  0  0  0  0
  2  4  1  0  0  0  0
  2 30  1  0  0  0  0
  3 31  1  0  0  0  0
  3 32  1  0  0  0  0
  3 33  1  0  0  0  0
  4 23  1  0  0  0  0
  4  5  2  0  0  0  0
  5  6  1  0  0  0  0
  5 34  1  0  0  0  0
  6 35  1  0  0  0  0
  6  7  2  0  0  0  0
  7  8  1  0  0  0  0
  7 23  1  0  0  0  0
  8 24  1  0  0  0  0
  8 21  2  0  0  0  0
  9 24  1  0  0  0  0
  9 10  1  0  0  0  0
  9 37  1  0  0  0  0
  9 38  1  0  0  0  0
 10 25  1  0  0  0  0
 10 39  1  0  0  0  0
 10 40  1  0  0  0  0
 11 25  1  0  0  0  0
 11 41  1  0  0  0  0
 11 42  1  0  0  0  0
 11 43  1  0  0  0  0
 12 25  1  0  0  0  0
 12 13  1  0  0  0  0
 12 22  2  0  0  0  0
 13 14  1  0  0  0  0
 13 20  1  0  0  0  0
 13 44  1  6  0  0  0
 14 15  1  0  0  0  0
 14 45  1  0  0  0  0
 14 46  1  0  0  0  0
 15 47  1  0  0  0  0
 15 48  1  0  0  0  0
 16 26  1  0  0  0  0
 16 17  1  0  0  0  0
 16 49  1  0  0  0  0
 16 50  1  0  0  0  0
 17 18  1  0  0  0  0
 17 51  1  0  0  0  0
 17 52  1  0  0  0  0
 18 19  1  0  0  0  0
 18 53  1  0  0  0  0
 18 54  1  0  0  0  0
 19 26  1  0  0  0  0
 19 20  1  0  0  0  0
 19 55  1  6  0  0  0
 20 56  1  0  0  0  0
 20 57  1  0  0  0  0
 24 36  1  0  0  0  0
 26 15  1  6  0  0  0
M  END
>  <score>
0.44892776012420654

$$$$
Z4082070872
 OpenBabel08202115463D

 46 48  0  0  0  0  0  0  0  0999 V2000
   -7.1980   -4.3042   -2.8817 C   0  0  0  0  0  0  0  0  0  0  0  0
   -5.1567   -2.9548   -2.5351 C   0  0  0  0  0  0  0  0  0  0  0  0
   -2.8420   -2.1221   -1.9110 C   0  0  0  0  0  0  0  0  0  0  0  0
   -1.5182   -2.1279   -2.3223 C   0  0  0  0  0  0  0  0  0  0  0  0
   -0.6414   -1.1734   -1.8421 C   0  0  0  0  0  0  0  0  0  0  0  0
   -1.0869   -0.2073   -0.9536 C   0  0  0  0  0  0  0  0  0  0  0  0
   -0.1399    0.8143   -0.4498 C   0  0  0  0  0  0  0  0  0  0  0  0
   -0.5590    2.0944   -0.1409 C   0  0  0  0  0  0  0  0  0  0  0  0
    0.3722    3.0055    0.3222 C   0  0  0  0  0  0  0  0  0  0  0  0
    1.6849    2.5994    0.4619 C   0  0  0  0  0  0  0  0  0  0  0  0
    2.7743    3.5296    0.9629 C   0  0  0  0  0  0  0  0  0  0  0  0
    4.1766    1.5787    1.6036 C   0  0  1  0  0  0  0  0  0  0  0  0
    5.5320    1.3216    2.2589 C   0  0  0  0  0  0  0  0  0  0  0  0
    5.2649    1.4274    3.7728 C   0  0  0  0  0  0  0  0  0  0  0  0
    3.1824    1.1212    2.6662 C   0  0  0  0  0  0  0  0  0  0  0  0
    2.0172    1.2969    0.1326 C   0  0  0  0  0  0  0  0  0  0  0  0
   -2.4068   -0.2017   -0.5436 C   0  0  0  0  0  0  0  0  0  0  0  0
   -3.2863   -1.1588   -1.0250 C   0  0  0  0  0  0  0  0  0  0  0  0
   -5.7551   -4.1628   -2.7562 N   0  0  0  0  0  0  0  0  0  0  0  0
   -3.8015   -3.0215   -2.4422 N   0  0  0  0  0  0  0  0  0  0  0  0
    4.0032    2.9916    1.3011 N   0  0  0  0  0  0  0  0  0  0  0  0
    3.8126    1.5862    3.8890 N   0  0  0  0  0  0  0  0  0  0  0  0
    1.1258    0.4045   -0.3216 N   0  0  0  0  0  0  0  0  0  0  0  0
   -5.7897   -1.9073   -2.4306 O   0  0  0  0  0  0  0  0  0  0  0  0
    2.5651    4.7417    1.0656 O   0  0  0  0  0  0  0  0  0  0  0  0
   -7.4831   -5.3021   -2.6216 H   0  0  0  0  0  0  0  0  0  0  0  0
   -7.4895   -4.1019   -3.8912 H   0  0  0  0  0  0  0  0  0  0  0  0
   -7.6825   -3.6124   -2.2247 H   0  0  0  0  0  0  0  0  0  0  0  0
   -5.1931   -4.9619   -2.8329 H   0  0  0  0  0  0  0  0  0  0  0  0
   -3.4163   -3.8437   -2.8109 H   0  0  0  0  0  0  0  0  0  0  0  0
   -1.1849   -2.8503   -2.9921 H   0  0  0  0  0  0  0  0  0  0  0  0
    0.3527   -1.1801   -2.1476 H   0  0  0  0  0  0  0  0  0  0  0  0
   -1.5561    2.3673   -0.2546 H   0  0  0  0  0  0  0  0  0  0  0  0
    0.0897    3.9775    0.5607 H   0  0  0  0  0  0  0  0  0  0  0  0
    4.7841    3.5825    1.3382 H   0  0  0  0  0  0  0  0  0  0  0  0
    4.0696    1.0056    0.7063 H   0  0  0  0  0  0  0  0  0  0  0  0
    6.2452    2.0571    1.9500 H   0  0  0  0  0  0  0  0  0  0  0  0
    5.8930    0.3463    2.0074 H   0  0  0  0  0  0  0  0  0  0  0  0
    5.7704    2.2752    4.1859 H   0  0  0  0  0  0  0  0  0  0  0  0
    5.5878    0.5394    4.2749 H   0  0  0  0  0  0  0  0  0  0  0  0
    3.5966    2.5316    4.0300 H   0  0  0  0  0  0  0  0  0  0  0  0
    2.2249    1.5773    2.5247 H   0  0  0  0  0  0  0  0  0  0  0  0
    3.0746    0.0566    2.6650 H   0  0  0  0  0  0  0  0  0  0  0  0
    3.0065    0.9957    0.2428 H   0  0  0  0  0  0  0  0  0  0  0  0
   -2.7401    0.5207    0.1262 H   0  0  0  0  0  0  0  0  0  0  0  0
   -4.2804   -1.1521   -0.7195 H   0  0  0  0  0  0  0  0  0  0  0  0
  1 19  1  0  0  0  0
  1 26  1  0  0  0  0
  1 27  1  0  0  0  0
  1 28  1  0  0  0  0
  2 19  1  0  0  0  0
  2 20  1  0  0  0  0
  2 24  2  0  0  0  0
  3 20  1  0  0  0  0
  3 18  1  0  0  0  0
  3  4  2  0  0  0  0
  4  5  1  0  0  0  0
  4 31  1  0  0  0  0
  5 32  1  0  0  0  0
  5  6  2  0  0  0  0
  6  7  1  0  0  0  0
  6 17  1  0  0  0  0
  7 23  1  0  0  0  0
  7  8  2  0  0  0  0
  8  9  1  0  0  0  0
  8 33  1  0  0  0  0
  9 34  1  0  0  0  0
  9 10  2  0  0  0  0
 10 11  1  0  0  0  0
 10 16  1  0  0  0  0
 11 21  1  0  0  0  0
 11 25  2  0  0  0  0
 12 21  1  0  0  0  0
 12 13  1  0  0  0  0
 12 15  1  0  0  0  0
 12 36  1  6  0  0  0
 13 14  1  0  0  0  0
 13 37  1  0  0  0  0
 13 38  1  0  0  0  0
 14 22  1  0  0  0  0
 14 39  1  0  0  0  0
 14 40  1  0  0  0  0
 15 22  1  0  0  0  0
 15 42  1  0  0  0  0
 15 43  1  0  0  0  0
 16 44  1  0  0  0  0
 16 23  2  0  0  0  0
 17 45  1  0  0  0  0
 17 18  2  0  0  0  0
 18 46  1  0  0  0  0
 19 29  1  0  0  0  0
 20 30  1  0  0  0  0
 21 35  1  0  0  0  0
 22 41  1  0  0  0  0
M  END
>  <score>
0.44898587465286255

$$$$
PV-004038915874
 OpenBabel08202115463D

 54 56  0  0  0  0  0  0  0  0999 V2000
   -5.7878   -4.2842   -4.4321 C   0  0  0  0  0  0  0  0  0  0  0  0
   -5.3151   -3.8544   -3.0837 C   0  0  0  0  0  0  0  0  0  0  0  0
   -3.8959   -3.1784   -1.5518 C   0  0  0  0  0  0  0  0  0  0  0  0
   -2.5076   -2.9306   -1.0380 C   0  0  0  0  0  0  0  0  0  0  0  0
   -1.9702   -1.5881   -1.4697 C   0  0  0  0  0  0  0  0  0  0  0  0
   -1.7058    0.8110   -0.8713 C   0  0  1  0  0  0  0  0  0  0  0  0
   -2.7256    1.3488   -1.8720 C   0  0  0  0  0  0  0  0  0  0  0  0
   -0.3119    0.8766   -1.4982 C   0  0  0  0  0  0  0  0  0  0  0  0
    0.8233    0.5518   -0.5195 C   0  0  0  0  0  0  0  0  0  0  0  0
    0.7498    1.4646    0.7128 C   0  0  1  0  0  0  0  0  0  0  0  0
    3.0114    1.6791    1.5708 C   0  0  0  0  0  0  0  0  0  0  0  0
    4.0245    1.2302    2.6003 C   0  0  2  0  0  0  0  0  0  0  0  0
    5.0725    2.1640    3.1188 C   0  0  2  0  0  0  0  0  0  0  0  0
    5.2051    3.5946    2.5891 C   0  0  0  0  0  0  0  0  0  0  0  0
    5.4627    1.0020    2.2549 C   0  0  1  0  0  0  0  0  0  0  0  0
    6.2429   -0.2537    2.6633 C   0  0  0  0  0  0  0  0  0  0  0  0
   -0.6245    1.2835    1.3719 C   0  0  0  0  0  0  0  0  0  0  0  0
   -1.7841    1.6563    0.4350 C   0  0  0  0  0  0  0  0  0  0  0  0
   -5.0444   -2.9157   -0.8695 C   0  0  0  0  0  0  0  0  0  0  0  0
   -4.0501   -3.7109   -2.8047 N   0  0  0  0  0  0  0  0  0  0  0  0
   -2.0267   -0.6135   -0.5482 N   0  0  0  0  0  0  0  0  0  0  0  0
    1.7968    1.1021    1.6546 N   0  0  0  0  0  0  0  0  0  0  0  0
   -1.5138   -1.4168   -2.5970 O   0  0  0  0  0  0  0  0  0  0  0  0
    3.2962    2.5176    0.7199 O   0  0  0  0  0  0  0  0  0  0  0  0
   -6.3953   -3.3521   -1.8314 S   0  0  0  0  0  0  0  0  0  0  0  0
   -6.8479   -4.4278   -4.4099 H   0  0  0  0  0  0  0  0  0  0  0  0
   -5.3093   -5.2025   -4.7015 H   0  0  0  0  0  0  0  0  0  0  0  0
   -5.5452   -3.5304   -5.1517 H   0  0  0  0  0  0  0  0  0  0  0  0
   -1.8605   -3.6967   -1.4111 H   0  0  0  0  0  0  0  0  0  0  0  0
   -2.5246   -2.9670    0.0313 H   0  0  0  0  0  0  0  0  0  0  0  0
   -2.2874   -0.8435    0.3680 H   0  0  0  0  0  0  0  0  0  0  0  0
   -2.7294    0.7305   -2.7453 H   0  0  0  0  0  0  0  0  0  0  0  0
   -2.4634    2.3496   -2.1450 H   0  0  0  0  0  0  0  0  0  0  0  0
   -3.6987    1.3431   -1.4271 H   0  0  0  0  0  0  0  0  0  0  0  0
   -0.1584    1.8658   -1.8762 H   0  0  0  0  0  0  0  0  0  0  0  0
   -0.2719    0.1755   -2.3055 H   0  0  0  0  0  0  0  0  0  0  0  0
    0.7377   -0.4681   -0.2074 H   0  0  0  0  0  0  0  0  0  0  0  0
    1.7631    0.6976   -1.0098 H   0  0  0  0  0  0  0  0  0  0  0  0
    0.8753    2.4844    0.4144 H   0  0  0  0  0  0  0  0  0  0  0  0
    1.6185    0.4368    2.3517 H   0  0  0  0  0  0  0  0  0  0  0  0
    3.6336    0.5547    3.3323 H   0  0  0  0  0  0  0  0  0  0  0  0
    5.3044    2.0532    4.1575 H   0  0  0  0  0  0  0  0  0  0  0  0
    5.8932    4.1397    3.2009 H   0  0  0  0  0  0  0  0  0  0  0  0
    4.2488    4.0741    2.6143 H   0  0  0  0  0  0  0  0  0  0  0  0
    5.5658    3.5698    1.5821 H   0  0  0  0  0  0  0  0  0  0  0  0
    5.6914    1.3014    1.2534 H   0  0  0  0  0  0  0  0  0  0  0  0
    5.9625   -1.0698    2.0307 H   0  0  0  0  0  0  0  0  0  0  0  0
    6.0182   -0.4978    3.6806 H   0  0  0  0  0  0  0  0  0  0  0  0
    7.2922   -0.0695    2.5636 H   0  0  0  0  0  0  0  0  0  0  0  0
   -0.6724    1.9064    2.2406 H   0  0  0  0  0  0  0  0  0  0  0  0
   -0.7335    0.2590    1.6606 H   0  0  0  0  0  0  0  0  0  0  0  0
   -2.7140    1.4621    0.9274 H   0  0  0  0  0  0  0  0  0  0  0  0
   -1.7206    2.6956    0.1888 H   0  0  0  0  0  0  0  0  0  0  0  0
   -5.0947   -2.5124    0.0878 H   0  0  0  0  0  0  0  0  0  0  0  0
  1  2  1  0  0  0  0
  1 26  1  0  0  0  0
  1 27  1  0  0  0  0
  1 28  1  0  0  0  0
  2 25  1  0  0  0  0
  2 20  2  0  0  0  0
  3 20  1  0  0  0  0
  3  4  1  0  0  0  0
  3 19  2  0  0  0  0
  4  5  1  0  0  0  0
  4 29  1  0  0  0  0
  4 30  1  0  0  0  0
  5 21  1  0  0  0  0
  5 23  2  0  0  0  0
  6 21  1  1  0  0  0
  6  7  1  0  0  0  0
  6  8  1  0  0  0  0
  6 18  1  0  0  0  0
  7 32  1  0  0  0  0
  7 33  1  0  0  0  0
  7 34  1  0  0  0  0
  8  9  1  0  0  0  0
  8 35  1  0  0  0  0
  8 36  1  0  0  0  0
  9 10  1  0  0  0  0
  9 37  1  0  0  0  0
  9 38  1  0  0  0  0
 10 22  1  0  0  0  0
 10 17  1  0  0  0  0
 10 39  1  6  0  0  0
 11 22  1  0  0  0  0
 11 12  1  0  0  0  0
 11 24  2  0  0  0  0
 12 13  1  0  0  0  0
 12 15  1  0  0  0  0
 12 41  1  1  0  0  0
 13 14  1  0  0  0  0
 13 15  1  0  0  0  0
 13 42  1  1  0  0  0
 14 43  1  0  0  0  0
 14 44  1  0  0  0  0
 14 45  1  0  0  0  0
 15 16  1  0  0  0  0
 15 46  1  6  0  0  0
 16 47  1  0  0  0  0
 16 48  1  0  0  0  0
 16 49  1  0  0  0  0
 17 18  1  0  0  0  0
 17 50  1  0  0  0  0
 17 51  1  0  0  0  0
 18 52  1  0  0  0  0
 18 53  1  0  0  0  0
 19 25  1  0  0  0  0
 19 54  1  0  0  0  0
 21 31  1  0  0  0  0
 22 40  1  0  0  0  0
M  END
>  <score>
0.44900810718536377

$$$$
PV-002983899151
 OpenBabel08202115463D

 56 57  0  0  0  0  0  0  0  0999 V2000
   -7.3998   -2.2984   -3.1450 C   0  0  0  0  0  0  0  0  0  0  0  0
   -6.0264   -2.3099   -2.5165 C   0  0  0  0  0  0  0  0  0  0  0  0
   -4.9017   -2.1807   -3.3094 C   0  0  0  0  0  0  0  0  0  0  0  0
   -3.6417   -2.1860   -2.7314 C   0  0  0  0  0  0  0  0  0  0  0  0
   -3.5101   -2.3258   -1.3627 C   0  0  0  0  0  0  0  0  0  0  0  0
   -2.1626   -2.2440   -0.6852 C   0  0  0  0  0  0  0  0  0  0  0  0
   -2.7580    0.0205    0.1530 C   0  0  0  0  0  0  0  0  0  0  0  0
   -3.4476    0.9176   -0.8492 C   0  0  0  0  0  0  0  0  0  0  0  0
   -0.4983   -0.3683   -0.6607 C   0  0  0  0  0  0  0  0  0  0  0  0
    0.7417    1.6944   -0.9552 C   0  0  0  0  0  0  0  0  0  0  0  0
    1.7922    1.6553    0.1265 C   0  0  0  0  0  0  0  0  0  0  0  0
    2.2665    2.8113    0.7172 C   0  0  0  0  0  0  0  0  0  0  0  0
    3.2929    2.7442    1.6464 C   0  0  0  0  0  0  0  0  0  0  0  0
    3.8457    1.5217    1.9781 C   0  0  0  0  0  0  0  0  0  0  0  0
    4.9682    1.4483    2.9862 C   0  0  0  0  0  0  0  0  0  0  0  0
    6.2555    0.9617    2.3279 C   0  0  0  0  0  0  0  0  0  0  0  0
    6.8141   -0.2465    3.0841 C   0  0  0  0  0  0  0  0  0  0  0  0
    7.2913    2.0725    2.2670 C   0  0  0  0  0  0  0  0  0  0  0  0
    3.3702    0.3622    1.3857 C   0  0  0  0  0  0  0  0  0  0  0  0
    2.3468    0.4293    0.4593 C   0  0  0  0  0  0  0  0  0  0  0  0
   -4.6380   -2.4554   -0.5674 C   0  0  0  0  0  0  0  0  0  0  0  0
   -5.8941   -2.4501   -1.1438 C   0  0  0  0  0  0  0  0  0  0  0  0
   -1.7495   -0.8669   -0.4161 N   0  0  0  0  0  0  0  0  0  0  0  0
   -0.4836    0.9733   -0.6446 N   0  0  0  0  0  0  0  0  0  0  0  0
   -4.1723    0.1258   -1.7812 O   0  0  0  0  0  0  0  0  0  0  0  0
    0.4875   -1.0564   -0.8688 O   0  0  0  0  0  0  0  0  0  0  0  0
   -7.3068   -2.1809   -4.2045 H   0  0  0  0  0  0  0  0  0  0  0  0
   -7.9681   -1.4849   -2.7448 H   0  0  0  0  0  0  0  0  0  0  0  0
   -7.8975   -3.2211   -2.9310 H   0  0  0  0  0  0  0  0  0  0  0  0
   -5.0007   -2.0795   -4.3397 H   0  0  0  0  0  0  0  0  0  0  0  0
   -2.7956   -2.0847   -3.3276 H   0  0  0  0  0  0  0  0  0  0  0  0
   -1.4325   -2.7028   -1.3187 H   0  0  0  0  0  0  0  0  0  0  0  0
   -2.2134   -2.7737    0.2431 H   0  0  0  0  0  0  0  0  0  0  0  0
   -2.2820    0.6409    0.8834 H   0  0  0  0  0  0  0  0  0  0  0  0
   -3.5030   -0.5830    0.6280 H   0  0  0  0  0  0  0  0  0  0  0  0
   -2.7150    1.4983   -1.3698 H   0  0  0  0  0  0  0  0  0  0  0  0
   -4.1227    1.5706   -0.3366 H   0  0  0  0  0  0  0  0  0  0  0  0
   -4.5882    0.6965   -2.4315 H   0  0  0  0  0  0  0  0  0  0  0  0
   -1.2997    1.4686   -0.4231 H   0  0  0  0  0  0  0  0  0  0  0  0
    0.4883    2.7181   -1.1357 H   0  0  0  0  0  0  0  0  0  0  0  0
    1.1621    1.2687   -1.8424 H   0  0  0  0  0  0  0  0  0  0  0  0
    1.8532    3.7316    0.4645 H   0  0  0  0  0  0  0  0  0  0  0  0
    3.6470    3.6137    2.0939 H   0  0  0  0  0  0  0  0  0  0  0  0
    4.6949    0.7693    3.7667 H   0  0  0  0  0  0  0  0  0  0  0  0
    5.1320    2.4212    3.4003 H   0  0  0  0  0  0  0  0  0  0  0  0
    6.0280    0.6562    1.3280 H   0  0  0  0  0  0  0  0  0  0  0  0
    7.8739   -0.2959    2.9454 H   0  0  0  0  0  0  0  0  0  0  0  0
    6.3634   -1.1414    2.7087 H   0  0  0  0  0  0  0  0  0  0  0  0
    6.5954   -0.1467    4.1267 H   0  0  0  0  0  0  0  0  0  0  0  0
    8.1702    1.7708    2.7974 H   0  0  0  0  0  0  0  0  0  0  0  0
    6.8910    2.9580    2.7148 H   0  0  0  0  0  0  0  0  0  0  0  0
    7.5418    2.2707    1.2458 H   0  0  0  0  0  0  0  0  0  0  0  0
    3.7835   -0.5581    1.6384 H   0  0  0  0  0  0  0  0  0  0  0  0
    1.9927   -0.4402    0.0119 H   0  0  0  0  0  0  0  0  0  0  0  0
   -4.5390   -2.5566    0.4630 H   0  0  0  0  0  0  0  0  0  0  0  0
   -6.7402   -2.5514   -0.5475 H   0  0  0  0  0  0  0  0  0  0  0  0
  1  2  1  0  0  0  0
  1 27  1  0  0  0  0
  1 28  1  0  0  0  0
  1 29  1  0  0  0  0
  2 22  1  0  0  0  0
  2  3  2  0  0  0  0
  3  4  1  0  0  0  0
  3 30  1  0  0  0  0
  4 31  1  0  0  0  0
  4  5  2  0  0  0  0
  5  6  1  0  0  0  0
  5 21  1  0  0  0  0
  6 23  1  0  0  0  0
  6 32  1  0  0  0  0
  6 33  1  0  0  0  0
  7 23  1  0  0  0  0
  7  8  1  0  0  0  0
  7 34  1  0  0  0  0
  7 35  1  0  0  0  0
  8 25  1  0  0  0  0
  8 36  1  0  0  0  0
  8 37  1  0  0  0  0
  9 23  1  0  0  0  0
  9 24  1  0  0  0  0
  9 26  2  0  0  0  0
 10 24  1  0  0  0  0
 10 11  1  0  0  0  0
 10 40  1  0  0  0  0
 10 41  1  0  0  0  0
 11 20  1  0  0  0  0
 11 12  2  0  0  0  0
 12 13  1  0  0  0  0
 12 42  1  0  0  0  0
 13 43  1  0  0  0  0
 13 14  2  0  0  0  0
 14 15  1  0  0  0  0
 14 19  1  0  0  0  0
 15 16  1  0  0  0  0
 15 44  1  0  0  0  0
 15 45  1  0  0  0  0
 16 17  1  0  0  0  0
 16 18  1  0  0  0  0
 16 46  1  0  0  0  0
 17 47  1  0  0  0  0
 17 48  1  0  0  0  0
 17 49  1  0  0  0  0
 18 50  1  0  0  0  0
 18 51  1  0  0  0  0
 18 52  1  0  0  0  0
 19 53  1  0  0  0  0
 19 20  2  0  0  0  0
 20 54  1  0  0  0  0
 21 55  1  0  0  0  0
 21 22  2  0  0  0  0
 22 56  1  0  0  0  0
 24 39  1  0  0  0  0
 25 38  1  0  0  0  0
M  END
>  <score>
0.44905447959899902

$$$$
Z4178467654
 OpenBabel08202115463D

 46 47  0  0  0  0  0  0  0  0999 V2000
   -3.0548    1.7724   -0.2191 O   0  0  0  0  0  0  0  0  0  0  0  0
   -5.8243   -3.3960   -4.3708 O   0  0  0  0  0  0  0  0  0  0  0  0
    3.0925    0.5681    0.6723 O   0  0  0  0  0  0  0  0  0  0  0  0
   -2.3588    0.8376   -0.5798 C   0  0  0  0  0  0  0  0  0  0  0  0
   -4.2503   -0.2858   -1.6674 C   0  0  0  0  0  0  0  0  0  0  0  0
   -4.5946   -1.6266   -2.2868 C   0  0  0  0  0  0  0  0  0  0  0  0
   -6.1075   -1.8108   -2.5481 C   0  0  0  0  0  0  0  0  0  0  0  0
   -6.5029   -3.1311   -3.1501 C   0  0  0  0  0  0  0  0  0  0  0  0
   -0.9178    0.7893   -0.2398 C   0  0  0  0  0  0  0  0  0  0  0  0
   -0.3333    1.8629    0.4052 C   0  0  0  0  0  0  0  0  0  0  0  0
    1.0132    1.8252    0.7326 C   0  0  0  0  0  0  0  0  0  0  0  0
    1.7724    0.7165    0.4091 C   0  0  0  0  0  0  0  0  0  0  0  0
    3.7523    1.6496    1.3488 C   0  0  0  0  0  0  0  0  0  0  0  0
    3.4910    1.5398    2.7947 C   0  0  0  0  0  0  0  0  0  0  0  0
    4.1656    0.3769    3.4728 C   0  0  0  0  0  0  0  0  0  0  0  0
    5.6330    0.3682    3.1700 C   0  0  0  0  0  0  0  0  0  0  0  0
    5.9304    0.3938    1.7195 C   0  0  0  0  0  0  0  0  0  0  0  0
    5.2688    1.5863    1.0389 C   0  0  0  0  0  0  0  0  0  0  0  0
    1.1860   -0.3601   -0.2378 C   0  0  0  0  0  0  0  0  0  0  0  0
   -0.1565   -0.3228   -0.5643 C   0  0  0  0  0  0  0  0  0  0  0  0
   -2.8376   -0.1864   -1.2919 N   0  0  0  0  0  0  0  0  0  0  0  0
   -6.5145   -0.8363   -3.3742 F   0  0  0  0  0  0  0  0  0  0  0  0
   -6.7574   -1.6719   -1.3838 F   0  0  0  0  0  0  0  0  0  0  0  0
   -2.2226   -0.8958   -1.5729 H   0  0  0  0  0  0  0  0  0  0  0  0
   -4.4721    0.4858   -2.3747 H   0  0  0  0  0  0  0  0  0  0  0  0
   -4.8484   -0.1494   -0.7907 H   0  0  0  0  0  0  0  0  0  0  0  0
   -4.2682   -2.4004   -1.6239 H   0  0  0  0  0  0  0  0  0  0  0  0
   -4.0764   -1.7127   -3.2190 H   0  0  0  0  0  0  0  0  0  0  0  0
   -7.5562   -3.1210   -3.3381 H   0  0  0  0  0  0  0  0  0  0  0  0
   -6.2718   -3.9093   -2.4530 H   0  0  0  0  0  0  0  0  0  0  0  0
   -6.3022   -2.9901   -5.0977 H   0  0  0  0  0  0  0  0  0  0  0  0
   -0.9037    2.6988    0.6450 H   0  0  0  0  0  0  0  0  0  0  0  0
    1.4521    2.6313    1.2215 H   0  0  0  0  0  0  0  0  0  0  0  0
    3.3640    2.5819    0.9954 H   0  0  0  0  0  0  0  0  0  0  0  0
    3.8300    2.4401    3.2631 H   0  0  0  0  0  0  0  0  0  0  0  0
    2.4350    1.4397    2.9352 H   0  0  0  0  0  0  0  0  0  0  0  0
    4.0256    0.4573    4.5305 H   0  0  0  0  0  0  0  0  0  0  0  0
    3.7292   -0.5353    3.1231 H   0  0  0  0  0  0  0  0  0  0  0  0
    6.0611   -0.5185    3.5890 H   0  0  0  0  0  0  0  0  0  0  0  0
    6.0786    1.2288    3.6234 H   0  0  0  0  0  0  0  0  0  0  0  0
    5.5664   -0.5080    1.2734 H   0  0  0  0  0  0  0  0  0  0  0  0
    6.9896    0.4579    1.5823 H   0  0  0  0  0  0  0  0  0  0  0  0
    5.4037    1.5011   -0.0192 H   0  0  0  0  0  0  0  0  0  0  0  0
    5.7322    2.4858    1.3867 H   0  0  0  0  0  0  0  0  0  0  0  0
    1.7563   -1.1961   -0.4776 H   0  0  0  0  0  0  0  0  0  0  0  0
   -0.5954   -1.1289   -1.0532 H   0  0  0  0  0  0  0  0  0  0  0  0
  2 31  1  0  0  0  0
  4 21  1  0  0  0  0
  4  9  1  0  0  0  0
  4  1  2  0  0  0  0
  5 21  1  0  0  0  0
  5  6  1  0  0  0  0
  5 25  1  0  0  0  0
  5 26  1  0  0  0  0
  6  7  1  0  0  0  0
  6 27  1  0  0  0  0
  6 28  1  0  0  0  0
  7 22  1  0  0  0  0
  7 23  1  0  0  0  0
  7  8  1  0  0  0  0
  8  2  1  0  0  0  0
  8 29  1  0  0  0  0
  8 30  1  0  0  0  0
  9 20  1  0  0  0  0
  9 10  2  0  0  0  0
 10 11  1  0  0  0  0
 10 32  1  0  0  0  0
 11 33  1  0  0  0  0
 11 12  2  0  0  0  0
 12  3  1  0  0  0  0
 12 19  1  0  0  0  0
 13  3  1  0  0  0  0
 13 14  1  0  0  0  0
 13 18  1  0  0  0  0
 13 34  1  0  0  0  0
 14 15  1  0  0  0  0
 14 35  1  0  0  0  0
 14 36  1  0  0  0  0
 15 16  1  0  0  0  0
 15 37  1  0  0  0  0
 15 38  1  0  0  0  0
 16 17  1  0  0  0  0
 16 39  1  0  0  0  0
 16 40  1  0  0  0  0
 17 18  1  0  0  0  0
 17 41  1  0  0  0  0
 17 42  1  0  0  0  0
 18 43  1  0  0  0  0
 18 44  1  0  0  0  0
 19 45  1  0  0  0  0
 19 20  2  0  0  0  0
 20 46  1  0  0  0  0
 21 24  1  0  0  0  0
M  END
>  <score>
0.4490625262260437

$$$$
Z3861411087
 OpenBabel08202115463D

 51 52  0  0  0  0  0  0  0  0999 V2000
    7.2629    0.1876    4.8483 C   0  0  0  0  0  0  0  0  0  0  0  0
    6.3211    0.7169    3.8064 C   0  0  0  0  0  0  0  0  0  0  0  0
    6.3899    0.3781    2.4663 C   0  0  0  0  0  0  0  0  0  0  0  0
    5.4721    0.9299    1.5939 C   0  0  0  0  0  0  0  0  0  0  0  0
    4.5205    1.7995    2.0937 C   0  0  0  0  0  0  0  0  0  0  0  0
    3.4985    2.4315    1.1785 C   0  0  2  0  0  0  0  0  0  0  0  0
    2.2005    1.6573    1.1541 C   0  0  0  0  0  0  0  0  0  0  0  0
    0.0519    1.5192   -0.0270 C   0  0  0  0  0  0  0  0  0  0  0  0
   -0.8699    2.1513   -0.8469 C   0  0  0  0  0  0  0  0  0  0  0  0
   -2.0383    1.5033   -1.2009 C   0  0  0  0  0  0  0  0  0  0  0  0
   -2.2859    0.2195   -0.7404 C   0  0  0  0  0  0  0  0  0  0  0  0
   -3.5599   -0.4914   -1.1316 C   0  0  0  0  0  0  0  0  0  0  0  0
   -5.0309   -2.3052   -2.7484 C   0  0  0  0  0  0  0  0  0  0  0  0
   -5.4445   -2.8671   -1.4864 C   0  0  0  0  0  0  0  0  0  0  0  0
   -4.8777   -3.4988   -3.7218 C   0  0  0  0  0  0  0  0  0  0  0  0
   -5.9831   -1.1112   -3.0853 C   0  0  0  0  0  0  0  0  0  0  0  0
   -1.3666   -0.4105    0.0771 C   0  0  0  0  0  0  0  0  0  0  0  0
   -0.1948    0.2392    0.4322 C   0  0  0  0  0  0  0  0  0  0  0  0
    4.5218    2.0801    3.4468 C   0  0  0  0  0  0  0  0  0  0  0  0
    3.9281    2.4553   -0.1713 O   0  0  0  0  0  0  0  0  0  0  0  0
   -2.5472   -2.7039   -2.0744 O   0  0  0  0  0  0  0  0  0  0  0  0
   -2.9758   -0.8564   -3.6498 O   0  0  0  0  0  0  0  0  0  0  0  0
    1.1999    2.2662    0.2758 N   0  0  0  0  0  0  0  0  0  0  0  0
    5.4014    1.5550    4.3053 N   0  0  0  0  0  0  0  0  0  0  0  0
   -3.3559   -1.5974   -2.4826 S   0  0  0  0  0  0  0  0  0  0  0  0
    8.2275    0.3563    4.4170 H   0  0  0  0  0  0  0  0  0  0  0  0
    7.0972   -0.8554    5.0202 H   0  0  0  0  0  0  0  0  0  0  0  0
    7.1559    0.7227    5.7687 H   0  0  0  0  0  0  0  0  0  0  0  0
    7.1188   -0.2793    2.1226 H   0  0  0  0  0  0  0  0  0  0  0  0
    5.4963    0.6957    0.5809 H   0  0  0  0  0  0  0  0  0  0  0  0
    3.2966    3.4255    1.5190 H   0  0  0  0  0  0  0  0  0  0  0  0
    4.4701    1.6830   -0.3488 H   0  0  0  0  0  0  0  0  0  0  0  0
    1.8059    1.6181    2.1479 H   0  0  0  0  0  0  0  0  0  0  0  0
    2.4001    0.6641    0.8096 H   0  0  0  0  0  0  0  0  0  0  0  0
    1.3281    3.1667   -0.0889 H   0  0  0  0  0  0  0  0  0  0  0  0
   -0.6824    3.1129   -1.1957 H   0  0  0  0  0  0  0  0  0  0  0  0
   -2.7318    1.9790   -1.8127 H   0  0  0  0  0  0  0  0  0  0  0  0
   -4.2888    0.2436   -1.4023 H   0  0  0  0  0  0  0  0  0  0  0  0
   -3.9103   -1.0482   -0.2877 H   0  0  0  0  0  0  0  0  0  0  0  0
   -4.8249   -3.7065   -1.2489 H   0  0  0  0  0  0  0  0  0  0  0  0
   -6.4640   -3.1846   -1.5547 H   0  0  0  0  0  0  0  0  0  0  0  0
   -5.3515   -2.1271   -0.7192 H   0  0  0  0  0  0  0  0  0  0  0  0
   -4.2113   -4.2213   -3.2990 H   0  0  0  0  0  0  0  0  0  0  0  0
   -4.4819   -3.1507   -4.6530 H   0  0  0  0  0  0  0  0  0  0  0  0
   -5.8342   -3.9494   -3.8864 H   0  0  0  0  0  0  0  0  0  0  0  0
   -6.9644   -1.4843   -3.2921 H   0  0  0  0  0  0  0  0  0  0  0  0
   -5.6118   -0.5903   -3.9430 H   0  0  0  0  0  0  0  0  0  0  0  0
   -6.0246   -0.4422   -2.2513 H   0  0  0  0  0  0  0  0  0  0  0  0
   -1.5541   -1.3722    0.4259 H   0  0  0  0  0  0  0  0  0  0  0  0
    0.4987   -0.2365    1.0441 H   0  0  0  0  0  0  0  0  0  0  0  0
    3.8016    2.7332    3.8160 H   0  0  0  0  0  0  0  0  0  0  0  0
  1  2  1  0  0  0  0
  1 26  1  0  0  0  0
  1 27  1  0  0  0  0
  1 28  1  0  0  0  0
  2 24  1  0  0  0  0
  2  3  2  0  0  0  0
  3  4  1  0  0  0  0
  3 29  1  0  0  0  0
  4 30  1  0  0  0  0
  4  5  2  0  0  0  0
  5  6  1  0  0  0  0
  5 19  1  0  0  0  0
  6 20  1  0  0  0  0
  6  7  1  0  0  0  0
  6 31  1  1  0  0  0
  7 23  1  0  0  0  0
  7 33  1  0  0  0  0
  7 34  1  0  0  0  0
  8 23  1  0  0  0  0
  8 18  1  0  0  0  0
  8  9  2  0  0  0  0
  9 10  1  0  0  0  0
  9 36  1  0  0  0  0
 10 37  1  0  0  0  0
 10 11  2  0  0  0  0
 11 12  1  0  0  0  0
 11 17  1  0  0  0  0
 12 38  1  0  0  0  0
 12 39  1  0  0  0  0
 13 14  1  0  0  0  0
 13 15  1  0  0  0  0
 13 16  1  0  0  0  0
 14 40  1  0  0  0  0
 14 41  1  0  0  0  0
 14 42  1  0  0  0  0
 15 43  1  0  0  0  0
 15 44  1  0  0  0  0
 15 45  1  0  0  0  0
 16 46  1  0  0  0  0
 16 47  1  0  0  0  0
 16 48  1  0  0  0  0
 17 49  1  0  0  0  0
 17 18  2  0  0  0  0
 18 50  1  0  0  0  0
 19 51  1  0  0  0  0
 19 24  2  0  0  0  0
 20 32  1  0  0  0  0
 23 35  1  0  0  0  0
 25 12  1  0  0  0  0
 25 13  1  0  0  0  0
 25 21  2  0  0  0  0
 25 22  2  0  0  0  0
M  END
>  <score>
0.44909828901290894

$$$$
PV-004003290367
 OpenBabel08202115463D

 55 57  0  0  0  0  0  0  0  0999 V2000
    6.3220   -1.8104    3.0671 C   0  0  0  0  0  0  0  0  0  0  0  0
    5.4834   -0.8032    2.3189 C   0  0  0  0  0  0  0  0  0  0  0  0
    6.9442    1.0210    2.9709 C   0  0  0  0  0  0  0  0  0  0  0  0
    4.7058    1.4960    2.1702 C   0  0  0  0  0  0  0  0  0  0  0  0
    3.2727    1.0557    2.0183 C   0  0  0  0  0  0  0  0  0  0  0  0
    1.1185    1.4019    0.8533 C   0  0  1  0  0  0  0  0  0  0  0  0
    0.1098    2.5119    1.1362 C   0  0  0  0  0  0  0  0  0  0  0  0
   -1.0652    2.2390    0.2135 C   0  0  2  0  0  0  0  0  0  0  0  0
   -2.0149    1.2362    0.8276 C   0  0  0  0  0  0  0  0  0  0  0  0
   -2.8176   -0.4596   -0.7274 C   0  0  0  0  0  0  0  0  0  0  0  0
   -3.9526   -0.9731   -1.5543 C   0  0  0  0  0  0  0  0  0  0  0  0
   -4.0013   -2.0776   -2.3711 C   0  0  0  0  0  0  0  0  0  0  0  0
   -5.8635   -3.1841   -3.6938 C   0  0  0  0  0  0  0  0  0  0  0  0
   -7.0623   -2.8229   -4.5193 C   0  0  0  0  0  0  0  0  0  0  0  0
   -7.1901   -3.8143   -3.4058 C   0  0  0  0  0  0  0  0  0  0  0  0
   -5.2590   -0.4656   -1.5426 C   0  0  0  0  0  0  0  0  0  0  0  0
   -0.3962    1.6648   -1.0461 C   0  0  0  0  0  0  0  0  0  0  0  0
    1.0148    1.2363   -0.6750 C   0  0  1  0  0  0  0  0  0  0  0  0
    5.5541    0.5472    2.9168 N   0  0  0  0  0  0  0  0  0  0  0  0
    2.4622    1.7994    1.2489 N   0  0  0  0  0  0  0  0  0  0  0  0
   -3.0001    0.7350   -0.1323 N   0  0  0  0  0  0  0  0  0  0  0  0
   -5.2799   -2.1899   -2.8030 N   0  0  0  0  0  0  0  0  0  0  0  0
   -6.0721   -1.2096   -2.2983 N   0  0  0  0  0  0  0  0  0  0  0  0
    2.8601    0.0441    2.5839 O   0  0  0  0  0  0  0  0  0  0  0  0
   -1.7883   -1.1040   -0.6104 O   0  0  0  0  0  0  0  0  0  0  0  0
    1.9745    2.0664   -1.3307 O   0  0  0  0  0  0  0  0  0  0  0  0
    7.3187   -1.4360    3.1743 H   0  0  0  0  0  0  0  0  0  0  0  0
    6.3438   -2.7310    2.5223 H   0  0  0  0  0  0  0  0  0  0  0  0
    5.8983   -1.9781    4.0352 H   0  0  0  0  0  0  0  0  0  0  0  0
    4.4645   -1.1299    2.3289 H   0  0  0  0  0  0  0  0  0  0  0  0
    5.8314   -0.7497    1.3085 H   0  0  0  0  0  0  0  0  0  0  0  0
    7.3566    1.0314    1.9837 H   0  0  0  0  0  0  0  0  0  0  0  0
    7.5200    0.3662    3.5909 H   0  0  0  0  0  0  0  0  0  0  0  0
    6.9679    2.0105    3.3775 H   0  0  0  0  0  0  0  0  0  0  0  0
    5.1233    1.6221    1.1932 H   0  0  0  0  0  0  0  0  0  0  0  0
    4.7158    2.4331    2.6867 H   0  0  0  0  0  0  0  0  0  0  0  0
    2.7961    2.6651    0.9333 H   0  0  0  0  0  0  0  0  0  0  0  0
    0.8500    0.4979    1.3589 H   0  0  0  0  0  0  0  0  0  0  0  0
   -0.2032    2.4806    2.1589 H   0  0  0  0  0  0  0  0  0  0  0  0
    0.5378    3.4691    0.9228 H   0  0  0  0  0  0  0  0  0  0  0  0
   -1.5946    3.1414   -0.0107 H   0  0  0  0  0  0  0  0  0  0  0  0
   -2.5333    1.7062    1.6372 H   0  0  0  0  0  0  0  0  0  0  0  0
   -1.4469    0.4091    1.1994 H   0  0  0  0  0  0  0  0  0  0  0  0
   -3.7941    1.2697   -0.3424 H   0  0  0  0  0  0  0  0  0  0  0  0
   -3.2084   -2.7064   -2.6113 H   0  0  0  0  0  0  0  0  0  0  0  0
   -5.1625   -3.8262   -4.1850 H   0  0  0  0  0  0  0  0  0  0  0  0
   -7.1295   -3.1489   -5.5362 H   0  0  0  0  0  0  0  0  0  0  0  0
   -7.5040   -1.8528   -4.4253 H   0  0  0  0  0  0  0  0  0  0  0  0
   -7.7241   -3.5529   -2.5161 H   0  0  0  0  0  0  0  0  0  0  0  0
   -7.3496   -4.8489   -3.6271 H   0  0  0  0  0  0  0  0  0  0  0  0
   -5.5567    0.3795   -1.0147 H   0  0  0  0  0  0  0  0  0  0  0  0
   -0.3592    2.4127   -1.8105 H   0  0  0  0  0  0  0  0  0  0  0  0
   -0.9510    0.8206   -1.3990 H   0  0  0  0  0  0  0  0  0  0  0  0
    1.1781    0.2153   -0.9504 H   0  0  0  0  0  0  0  0  0  0  0  0
    1.5575    2.8888   -1.5979 H   0  0  0  0  0  0  0  0  0  0  0  0
  1  2  1  0  0  0  0
  1 27  1  0  0  0  0
  1 28  1  0  0  0  0
  1 29  1  0  0  0  0
  2 19  1  0  0  0  0
  2 30  1  0  0  0  0
  2 31  1  0  0  0  0
  3 19  1  0  0  0  0
  3 32  1  0  0  0  0
  3 33  1  0  0  0  0
  3 34  1  0  0  0  0
  4 19  1  0  0  0  0
  4  5  1  0  0  0  0
  4 35  1  0  0  0  0
  4 36  1  0  0  0  0
  5 20  1  0  0  0  0
  5 24  2  0  0  0  0
  6 20  1  0  0  0  0
  6  7  1  0  0  0  0
  6 18  1  0  0  0  0
  6 38  1  1  0  0  0
  7  8  1  0  0  0  0
  7 39  1  0  0  0  0
  7 40  1  0  0  0  0
  8  9  1  0  0  0  0
  8 17  1  0  0  0  0
  8 41  1  6  0  0  0
  9 21  1  0  0  0  0
  9 42  1  0  0  0  0
  9 43  1  0  0  0  0
 10 21  1  0  0  0  0
 10 11  1  0  0  0  0
 10 25  2  0  0  0  0
 11 16  1  0  0  0  0
 11 12  2  0  0  0  0
 12 22  1  0  0  0  0
 12 45  1  0  0  0  0
 13 22  1  0  0  0  0
 13 14  1  0  0  0  0
 13 15  1  0  0  0  0
 13 46  1  0  0  0  0
 14 15  1  0  0  0  0
 14 47  1  0  0  0  0
 14 48  1  0  0  0  0
 15 49  1  0  0  0  0
 15 50  1  0  0  0  0
 16 51  1  0  0  0  0
 16 23  2  0  0  0  0
 17 18  1  0  0  0  0
 17 52  1  0  0  0  0
 17 53  1  0  0  0  0
 18 26  1  0  0  0  0
 18 54  1  6  0  0  0
 20 37  1  0  0  0  0
 21 44  1  0  0  0  0
 22 23  1  0  0  0  0
 26 55  1  0  0  0  0
M  END
>  <score>
0.44910180568695068

$$$$
Z3938357984
 OpenBabel08202115463D

 42 45  0  0  0  0  0  0  0  0999 V2000
   -6.8011   -4.1343   -3.6406 C   0  0  0  0  0  0  0  0  0  0  0  0
   -5.7601   -0.7562   -4.1859 C   0  0  0  0  0  0  0  0  0  0  0  0
   -4.7342   -1.1441   -3.2758 C   0  0  0  0  0  0  0  0  0  0  0  0
   -4.9742   -2.4595   -2.9413 C   0  0  0  0  0  0  0  0  0  0  0  0
   -2.9365   -1.4707   -1.8198 C   0  0  0  0  0  0  0  0  0  0  0  0
   -1.7023   -1.1894   -1.0241 C   0  0  0  0  0  0  0  0  0  0  0  0
   -0.0420    0.4945   -0.5127 C   0  0  0  0  0  0  0  0  0  0  0  0
    1.4659    1.9325    0.1774 C   0  0  0  0  0  0  0  0  0  0  0  0
    1.9123    0.8488    0.8702 C   0  0  0  0  0  0  0  0  0  0  0  0
    3.0580    0.7982    1.8927 C   0  0  0  0  0  0  0  0  0  0  0  0
    2.6243    1.5100    3.1830 C   0  0  0  0  0  0  0  0  0  0  0  0
    3.7361    1.6275    4.2050 C   0  0  0  0  0  0  0  0  0  0  0  0
    4.9481    2.3168    3.6237 C   0  0  0  0  0  0  0  0  0  0  0  0
    5.4226    1.6308    2.3479 C   0  0  0  0  0  0  0  0  0  0  0  0
    4.3132    1.5111    1.3024 C   0  0  0  0  0  0  0  0  0  0  0  0
   -3.5570   -0.6120   -2.6056 C   0  0  0  0  0  0  0  0  0  0  0  0
   -6.0984   -2.8559   -3.6186 N   0  0  0  0  0  0  0  0  0  0  0  0
   -6.5510   -1.7712   -4.3757 N   0  0  0  0  0  0  0  0  0  0  0  0
   -1.1352    0.0324   -1.1975 N   0  0  0  0  0  0  0  0  0  0  0  0
    0.3603    1.7308   -0.6061 N   0  0  0  0  0  0  0  0  0  0  0  0
   -3.7486   -3.0252   -1.8150 S   0  0  0  0  0  0  0  0  0  0  0  0
    0.9078   -0.4999    0.5345 S   0  0  0  0  0  0  0  0  0  0  0  0
   -1.2444   -2.0269   -0.2643 O   0  0  0  0  0  0  0  0  0  0  0  0
    3.3755   -0.5568    2.1829 O   0  0  0  0  0  0  0  0  0  0  0  0
   -7.8354   -3.9696   -3.8594 H   0  0  0  0  0  0  0  0  0  0  0  0
   -6.7098   -4.6077   -2.6854 H   0  0  0  0  0  0  0  0  0  0  0  0
   -6.3733   -4.7632   -4.3933 H   0  0  0  0  0  0  0  0  0  0  0  0
   -5.8597    0.1814   -4.6247 H   0  0  0  0  0  0  0  0  0  0  0  0
   -1.5382    0.6286   -1.8627 H   0  0  0  0  0  0  0  0  0  0  0  0
    1.9361    2.8581    0.2393 H   0  0  0  0  0  0  0  0  0  0  0  0
    4.1239   -0.8321    1.6485 H   0  0  0  0  0  0  0  0  0  0  0  0
    1.8181    0.9588    3.6202 H   0  0  0  0  0  0  0  0  0  0  0  0
    2.2889    2.4944    2.9314 H   0  0  0  0  0  0  0  0  0  0  0  0
    3.3818    2.1931    5.0413 H   0  0  0  0  0  0  0  0  0  0  0  0
    4.0156    0.6470    4.5296 H   0  0  0  0  0  0  0  0  0  0  0  0
    5.7389    2.2959    4.3442 H   0  0  0  0  0  0  0  0  0  0  0  0
    4.6962    3.3322    3.3992 H   0  0  0  0  0  0  0  0  0  0  0  0
    5.7694    0.6490    2.5945 H   0  0  0  0  0  0  0  0  0  0  0  0
    6.2274    2.1995    1.9311 H   0  0  0  0  0  0  0  0  0  0  0  0
    4.0359    2.4910    0.9740 H   0  0  0  0  0  0  0  0  0  0  0  0
    4.6771    0.9452    0.4704 H   0  0  0  0  0  0  0  0  0  0  0  0
   -3.2310    0.3670   -2.7359 H   0  0  0  0  0  0  0  0  0  0  0  0
  1 17  1  0  0  0  0
  1 25  1  0  0  0  0
  1 26  1  0  0  0  0
  1 27  1  0  0  0  0
  2  3  1  0  0  0  0
  2 28  1  0  0  0  0
  2 18  2  0  0  0  0
  3 16  1  0  0  0  0
  3  4  2  0  0  0  0
  4 17  1  0  0  0  0
  4 21  1  0  0  0  0
  5 21  1  0  0  0  0
  5  6  1  0  0  0  0
  5 16  2  0  0  0  0
  6 19  1  0  0  0  0
  6 23  2  0  0  0  0
  7 19  1  0  0  0  0
  7 22  1  0  0  0  0
  7 20  2  0  0  0  0
  8 20  1  0  0  0  0
  8 30  1  0  0  0  0
  8  9  2  0  0  0  0
  9 10  1  0  0  0  0
  9 22  1  0  0  0  0
 10 24  1  0  0  0  0
 10 11  1  0  0  0  0
 10 15  1  0  0  0  0
 11 12  1  0  0  0  0
 11 32  1  0  0  0  0
 11 33  1  0  0  0  0
 12 13  1  0  0  0  0
 12 34  1  0  0  0  0
 12 35  1  0  0  0  0
 13 14  1  0  0  0  0
 13 36  1  0  0  0  0
 13 37  1  0  0  0  0
 14 15  1  0  0  0  0
 14 38  1  0  0  0  0
 14 39  1  0  0  0  0
 15 40  1  0  0  0  0
 15 41  1  0  0  0  0
 16 42  1  0  0  0  0
 17 18  1  0  0  0  0
 19 29  1  0  0  0  0
 24 31  1  0  0  0  0
M  END
>  <score>
0.44910550117492676

$$$$
Z4169925315
 OpenBabel08202115463D

 46 48  0  0  0  0  0  0  0  0999 V2000
    5.5865    1.8627    2.5430 C   0  0  0  0  0  0  0  0  0  0  0  0
    4.2650    2.6130    2.5751 C   0  0  1  0  0  0  0  0  0  0  0  0
    3.5689    2.7620    1.1896 C   0  0  0  0  0  0  0  0  0  0  0  0
    2.6306    1.5749    1.5275 C   0  0  2  0  0  0  0  0  0  0  0  0
    3.0366    0.2622    0.9218 C   0  0  0  0  0  0  0  0  0  0  0  0
    1.1738    1.8267    1.2503 C   0  0  0  0  0  0  0  0  0  0  0  0
    0.5150    0.0752   -0.3757 C   0  0  0  0  0  0  0  0  0  0  0  0
   -0.7894   -0.5029   -0.8599 C   0  0  0  0  0  0  0  0  0  0  0  0
   -1.9585    0.2226   -0.7292 C   0  0  0  0  0  0  0  0  0  0  0  0
   -3.1574   -0.3076   -1.1796 C   0  0  0  0  0  0  0  0  0  0  0  0
   -3.1845   -1.5641   -1.7547 C   0  0  0  0  0  0  0  0  0  0  0  0
   -4.4722   -2.1234   -2.2274 C   0  0  0  0  0  0  0  0  0  0  0  0
   -5.4434   -1.2887   -2.7487 C   0  0  0  0  0  0  0  0  0  0  0  0
   -6.6319   -1.8429   -3.1845 C   0  0  0  0  0  0  0  0  0  0  0  0
   -5.9487   -3.9485   -2.6148 C   0  0  0  0  0  0  0  0  0  0  0  0
   -4.7294   -3.4787   -2.1589 C   0  0  0  0  0  0  0  0  0  0  0  0
   -2.0121   -2.2919   -1.8859 C   0  0  0  0  0  0  0  0  0  0  0  0
   -0.8167   -1.7632   -1.4367 C   0  0  0  0  0  0  0  0  0  0  0  0
    3.0526    1.7635    3.0170 C   0  0  0  0  0  0  0  0  0  0  0  0
    4.3693   -0.0501    1.3051 O   0  0  0  0  0  0  0  0  0  0  0  0
    0.4194    0.5775    1.0124 N   0  0  0  0  0  0  0  0  0  0  0  0
   -6.8975   -3.1514   -3.1265 N   0  0  0  0  0  0  0  0  0  0  0  0
    5.5242    1.0024    3.1760 H   0  0  0  0  0  0  0  0  0  0  0  0
    6.3692    2.5045    2.8898 H   0  0  0  0  0  0  0  0  0  0  0  0
    5.7963    1.5532    1.5404 H   0  0  0  0  0  0  0  0  0  0  0  0
    4.3875    3.5295    3.1136 H   0  0  0  0  0  0  0  0  0  0  0  0
    4.2151    2.5833    0.3557 H   0  0  0  0  0  0  0  0  0  0  0  0
    3.0613    3.6942    1.0548 H   0  0  0  0  0  0  0  0  0  0  0  0
    2.9798    0.3298   -0.1445 H   0  0  0  0  0  0  0  0  0  0  0  0
    2.3778   -0.5074    1.2665 H   0  0  0  0  0  0  0  0  0  0  0  0
    4.4302   -0.0733    2.2629 H   0  0  0  0  0  0  0  0  0  0  0  0
    1.0919    2.4476    0.3827 H   0  0  0  0  0  0  0  0  0  0  0  0
    0.7464    2.3307    2.0919 H   0  0  0  0  0  0  0  0  0  0  0  0
   -0.5247    0.7437    1.2160 H   0  0  0  0  0  0  0  0  0  0  0  0
    1.2658   -0.6860   -0.4162 H   0  0  0  0  0  0  0  0  0  0  0  0
    0.7926    0.8852   -1.0173 H   0  0  0  0  0  0  0  0  0  0  0  0
   -1.9387    1.1664   -0.2928 H   0  0  0  0  0  0  0  0  0  0  0  0
   -4.0365    0.2401   -1.0849 H   0  0  0  0  0  0  0  0  0  0  0  0
   -5.2825   -0.2632   -2.8117 H   0  0  0  0  0  0  0  0  0  0  0  0
   -7.3568   -1.2092   -3.5777 H   0  0  0  0  0  0  0  0  0  0  0  0
   -6.1382   -4.9695   -2.5578 H   0  0  0  0  0  0  0  0  0  0  0  0
   -4.0203   -4.1337   -1.7720 H   0  0  0  0  0  0  0  0  0  0  0  0
   -2.0320   -3.2357   -2.3222 H   0  0  0  0  0  0  0  0  0  0  0  0
    0.0623   -2.3108   -1.5314 H   0  0  0  0  0  0  0  0  0  0  0  0
    2.3383    2.2982    3.6076 H   0  0  0  0  0  0  0  0  0  0  0  0
    3.3166    0.8531    3.5134 H   0  0  0  0  0  0  0  0  0  0  0  0
  1  2  1  0  0  0  0
  1 23  1  0  0  0  0
  1 24  1  0  0  0  0
  1 25  1  0  0  0  0
  2  3  1  0  0  0  0
  2 19  1  0  0  0  0
  2 26  1  1  0  0  0
  3  4  1  0  0  0  0
  3 27  1  0  0  0  0
  3 28  1  0  0  0  0
  4  5  1  6  0  0  0
  4  6  1  0  0  0  0
  4 19  1  0  0  0  0
  5 20  1  0  0  0  0
  5 29  1  0  0  0  0
  5 30  1  0  0  0  0
  6 21  1  0  0  0  0
  6 32  1  0  0  0  0
  6 33  1  0  0  0  0
  7 21  1  0  0  0  0
  7  8  1  0  0  0  0
  7 35  1  0  0  0  0
  7 36  1  0  0  0  0
  8 18  1  0  0  0  0
  8  9  2  0  0  0  0
  9 10  1  0  0  0  0
  9 37  1  0  0  0  0
 10 38  1  0  0  0  0
 10 11  2  0  0  0  0
 11 12  1  0  0  0  0
 11 17  1  0  0  0  0
 12 16  1  0  0  0  0
 12 13  2  0  0  0  0
 13 14  1  0  0  0  0
 13 39  1  0  0  0  0
 14 40  1  0  0  0  0
 14 22  2  0  0  0  0
 15 22  1  0  0  0  0
 15 41  1  0  0  0  0
 15 16  2  0  0  0  0
 16 42  1  0  0  0  0
 17 43  1  0  0  0  0
 17 18  2  0  0  0  0
 18 44  1  0  0  0  0
 19 45  1  0  0  0  0
 19 46  1  0  0  0  0
 20 31  1  0  0  0  0
 21 34  1  0  0  0  0
M  END
>  <score>
0.44916057586669922

$$$$
PV-003041748389
 OpenBabel08202115463D

 32 34  0  0  0  0  0  0  0  0999 V2000
   -5.2077   -1.6311   -3.1691 C   0  0  0  0  0  0  0  0  0  0  0  0
   -3.5406   -2.6729   -1.1529 C   0  0  0  0  0  0  0  0  0  0  0  0
   -2.1162    0.2323   -1.5093 C   0  0  0  0  0  0  0  0  0  0  0  0
   -2.0627    1.5234   -1.0717 C   0  0  0  0  0  0  0  0  0  0  0  0
   -0.8951    1.7946   -0.3168 C   0  0  0  0  0  0  0  0  0  0  0  0
   -0.0902    0.7011   -0.1847 C   0  0  0  0  0  0  0  0  0  0  0  0
    1.1832    0.5469    0.5126 C   0  0  0  0  0  0  0  0  0  0  0  0
    3.1259    0.6301    1.2753 C   0  0  0  0  0  0  0  0  0  0  0  0
    4.5412    1.0793    1.4899 C   0  0  1  0  0  0  0  0  0  0  0  0
    4.6489    1.9755    2.7367 C   0  0  0  0  0  0  0  0  0  0  0  0
    6.0016    0.1524    2.9686 C   0  0  0  0  0  0  0  0  0  0  0  0
   -4.2475   -1.1966   -1.7721 S   0  0  0  0  0  0  0  0  0  0  0  0
   -0.7472   -0.6631   -0.9918 S   0  0  0  0  0  0  0  0  0  0  0  0
   -5.1569   -0.6972   -0.7880 O   0  0  0  0  0  0  0  0  0  0  0  0
    5.6321    1.2930    3.5550 O   0  0  0  0  0  0  0  0  0  0  0  0
    6.7894   -0.6107    3.4410 O   0  0  0  0  0  0  0  0  0  0  0  0
    5.3947   -0.0414    1.7979 O   0  0  0  0  0  0  0  0  0  0  0  0
    1.2901   -0.4336    1.4281 O   0  0  0  0  0  0  0  0  0  0  0  0
   -3.1261   -0.3176   -2.2720 N   0  0  0  0  0  0  0  0  0  0  0  0
    2.2716    1.2398    0.3780 N   0  0  0  0  0  0  0  0  0  0  0  0
    2.6061   -0.3748    1.9285 N   0  0  0  0  0  0  0  0  0  0  0  0
   -4.5618   -1.9384   -3.9649 H   0  0  0  0  0  0  0  0  0  0  0  0
   -5.7829   -0.7853   -3.4833 H   0  0  0  0  0  0  0  0  0  0  0  0
   -5.8656   -2.4352   -2.9133 H   0  0  0  0  0  0  0  0  0  0  0  0
   -3.5562   -2.6551   -0.0832 H   0  0  0  0  0  0  0  0  0  0  0  0
   -2.5295   -2.7541   -1.4934 H   0  0  0  0  0  0  0  0  0  0  0  0
   -4.1040   -3.5122   -1.5036 H   0  0  0  0  0  0  0  0  0  0  0  0
   -2.7986    2.2309   -1.2706 H   0  0  0  0  0  0  0  0  0  0  0  0
   -0.6756    2.7254    0.0919 H   0  0  0  0  0  0  0  0  0  0  0  0
    4.8884    1.5947    0.6189 H   0  0  0  0  0  0  0  0  0  0  0  0
    4.9837    2.9575    2.4749 H   0  0  0  0  0  0  0  0  0  0  0  0
    3.7087    2.0419    3.2431 H   0  0  0  0  0  0  0  0  0  0  0  0
  1 22  1  0  0  0  0
  1 23  1  0  0  0  0
  1 24  1  0  0  0  0
  2 25  1  0  0  0  0
  2 26  1  0  0  0  0
  2 27  1  0  0  0  0
  3 19  1  0  0  0  0
  3 13  1  0  0  0  0
  3  4  2  0  0  0  0
  4  5  1  0  0  0  0
  4 28  1  0  0  0  0
  5 29  1  0  0  0  0
  5  6  2  0  0  0  0
  6  7  1  0  0  0  0
  6 13  1  0  0  0  0
  7 18  1  0  0  0  0
  7 20  2  0  0  0  0
  8 20  1  0  0  0  0
  8  9  1  0  0  0  0
  8 21  2  0  0  0  0
  9 10  1  0  0  0  0
  9 17  1  0  0  0  0
  9 30  1  6  0  0  0
 10 15  1  0  0  0  0
 10 31  1  0  0  0  0
 10 32  1  0  0  0  0
 11 15  1  0  0  0  0
 11 17  1  0  0  0  0
 11 16  2  0  0  0  0
 12  1  1  0  0  0  0
 12  2  1  0  0  0  0
 12 14  2  0  0  0  0
 12 19  2  0  0  0  0
 21 18  1  0  0  0  0
M  END
>  <score>
0.44917809963226318

$$$$
Z3906451161
 OpenBabel08202115463D

 44 47  0  0  0  0  0  0  0  0999 V2000
   -7.0419   -3.6501   -3.8761 C   0  0  0  0  0  0  0  0  0  0  0  0
   -6.3173   -2.5914   -3.3838 C   0  0  0  0  0  0  0  0  0  0  0  0
   -4.9340   -2.5037   -2.8005 C   0  0  0  0  0  0  0  0  0  0  0  0
   -5.5107   -0.1983   -2.6207 C   0  0  0  0  0  0  0  0  0  0  0  0
   -3.4992   -0.4755   -1.8572 C   0  0  0  0  0  0  0  0  0  0  0  0
   -2.1914   -1.0648   -1.4351 C   0  0  0  0  0  0  0  0  0  0  0  0
    0.1317   -0.6428   -0.6977 C   0  0  1  0  0  0  0  0  0  0  0  0
    1.2078    0.4747   -0.7834 C   0  0  0  0  0  0  0  0  0  0  0  0
    1.3694    0.3930    0.7689 C   0  0  1  0  0  0  0  0  0  0  0  0
    2.7133    0.3388    1.4486 C   0  0  0  0  0  0  0  0  0  0  0  0
    4.4153    1.7872    2.4805 C   0  0  0  0  0  0  0  0  0  0  0  0
    4.3973    1.1050    3.8387 C   0  0  0  0  0  0  0  0  0  0  0  0
    4.4344    3.2910    2.6322 C   0  0  0  0  0  0  0  0  0  0  0  0
    5.5617    1.3160    1.6007 C   0  0  0  0  0  0  0  0  0  0  0  0
    0.0765    0.6165    1.4649 C   0  0  0  0  0  0  0  0  0  0  0  0
    0.3605   -0.7339    0.7954 C   0  0  1  0  0  0  0  0  0  0  0  0
   -4.5694   -1.1484   -2.4129 N   0  0  0  0  0  0  0  0  0  0  0  0
   -5.0218    0.9523   -2.2133 N   0  0  0  0  0  0  0  0  0  0  0  0
   -3.8319    0.7781   -1.7635 N   0  0  0  0  0  0  0  0  0  0  0  0
   -1.2363   -0.2014   -1.0783 N   0  0  0  0  0  0  0  0  0  0  0  0
   -2.0251   -2.2734   -1.4241 O   0  0  0  0  0  0  0  0  0  0  0  0
    3.3412   -0.6577    1.6634 O   0  0  0  0  0  0  0  0  0  0  0  0
    3.1255    1.5644    1.7885 O   0  0  0  0  0  0  0  0  0  0  0  0
   -6.9451   -0.9384   -3.3366 S   0  0  0  0  0  0  0  0  0  0  0  0
   -6.6344   -4.6068   -3.8702 H   0  0  0  0  0  0  0  0  0  0  0  0
   -7.9981   -3.4946   -4.2547 H   0  0  0  0  0  0  0  0  0  0  0  0
   -4.2328   -2.8506   -3.5304 H   0  0  0  0  0  0  0  0  0  0  0  0
   -4.8880   -3.1307   -1.9347 H   0  0  0  0  0  0  0  0  0  0  0  0
   -1.4445    0.7562   -1.0670 H   0  0  0  0  0  0  0  0  0  0  0  0
    0.3817   -1.5340   -1.2345 H   0  0  0  0  0  0  0  0  0  0  0  0
    0.8406    1.4144   -1.1399 H   0  0  0  0  0  0  0  0  0  0  0  0
    2.0843    0.2020   -1.3332 H   0  0  0  0  0  0  0  0  0  0  0  0
    5.2746    1.3779    4.3871 H   0  0  0  0  0  0  0  0  0  0  0  0
    4.3768    0.0437    3.7041 H   0  0  0  0  0  0  0  0  0  0  0  0
    3.5278    1.4132    4.3808 H   0  0  0  0  0  0  0  0  0  0  0  0
    3.6470    3.5936    3.2906 H   0  0  0  0  0  0  0  0  0  0  0  0
    4.2937    3.7476    1.6748 H   0  0  0  0  0  0  0  0  0  0  0  0
    5.3759    3.5963    3.0387 H   0  0  0  0  0  0  0  0  0  0  0  0
    6.4863    1.4301    2.1272 H   0  0  0  0  0  0  0  0  0  0  0  0
    5.5872    1.9008    0.7050 H   0  0  0  0  0  0  0  0  0  0  0  0
    5.4187    0.2856    1.3505 H   0  0  0  0  0  0  0  0  0  0  0  0
   -0.6497    1.2798    1.0434 H   0  0  0  0  0  0  0  0  0  0  0  0
    0.0494    0.6888    2.5321 H   0  0  0  0  0  0  0  0  0  0  0  0
    0.4911   -1.6498    1.3321 H   0  0  0  0  0  0  0  0  0  0  0  0
  1 25  1  0  0  0  0
  1 26  1  0  0  0  0
  1  2  2  0  0  0  0
  2  3  1  0  0  0  0
  2 24  1  0  0  0  0
  3 17  1  0  0  0  0
  3 27  1  0  0  0  0
  3 28  1  0  0  0  0
  4 17  1  0  0  0  0
  4 24  1  0  0  0  0
  4 18  2  0  0  0  0
  5 17  1  0  0  0  0
  5  6  1  0  0  0  0
  5 19  2  0  0  0  0
  6 20  1  0  0  0  0
  6 21  2  0  0  0  0
  7 20  1  0  0  0  0
  7  8  1  0  0  0  0
  7 16  1  0  0  0  0
  7 30  1  6  0  0  0
  8  9  1  0  0  0  0
  8 31  1  0  0  0  0
  8 32  1  0  0  0  0
  9 10  1  1  0  0  0
  9 15  1  0  0  0  0
  9 16  1  0  0  0  0
 10 23  1  0  0  0  0
 10 22  2  0  0  0  0
 11 23  1  0  0  0  0
 11 12  1  0  0  0  0
 11 13  1  0  0  0  0
 11 14  1  0  0  0  0
 12 33  1  0  0  0  0
 12 34  1  0  0  0  0
 12 35  1  0  0  0  0
 13 36  1  0  0  0  0
 13 37  1  0  0  0  0
 13 38  1  0  0  0  0
 14 39  1  0  0  0  0
 14 40  1  0  0  0  0
 14 41  1  0  0  0  0
 15 16  1  0  0  0  0
 15 42  1  0  0  0  0
 15 43  1  0  0  0  0
 16 44  1  1  0  0  0
 18 19  1  0  0  0  0
 20 29  1  0  0  0  0
M  END
>  <score>
0.449249267578125

$$$$
PV-004135419762
 OpenBabel08202115463D

 47 50  0  0  0  0  0  0  0  0999 V2000
    4.5041   -0.8730    3.1792 C   0  0  0  0  0  0  0  0  0  0  0  0
    3.9529    0.5607    3.1093 C   0  0  1  0  0  0  0  0  0  0  0  0
    2.4859    0.5202    2.7459 C   0  0  0  0  0  0  0  0  0  0  0  0
    0.8809    0.4172    0.8637 C   0  0  0  0  0  0  0  0  0  0  0  0
    0.5987    1.7382    0.1486 C   0  0  1  0  0  0  0  0  0  0  0  0
    0.9519    1.9414   -1.2946 C   0  0  0  0  0  0  0  0  0  0  0  0
   -0.4817    1.8179   -0.8841 C   0  0  1  0  0  0  0  0  0  0  0  0
   -2.3107    0.6520   -2.0394 C   0  0  0  0  0  0  0  0  0  0  0  0
   -2.9617   -0.6638   -2.2281 C   0  0  0  0  0  0  0  0  0  0  0  0
   -4.1530   -0.9496   -2.8449 C   0  0  0  0  0  0  0  0  0  0  0  0
   -6.1564   -0.7912   -3.9440 C   0  0  0  0  0  0  0  0  0  0  0  0
   -6.3203   -2.2041   -3.8607 C   0  0  0  0  0  0  0  0  0  0  0  0
   -5.3846   -2.9515   -3.2538 C   0  0  0  0  0  0  0  0  0  0  0  0
   -2.4509   -1.8773   -1.7929 C   0  0  0  0  0  0  0  0  0  0  0  0
    4.2922    1.4457    4.3363 C   0  0  0  0  0  0  0  0  0  0  0  0
    4.7431    2.5964    3.3883 C   0  0  2  0  0  0  0  0  0  0  0  0
    4.8086    1.5469    2.2564 C   0  0  0  0  0  0  0  0  0  0  0  0
    1.6120    0.6196    3.6062 O   0  0  0  0  0  0  0  0  0  0  0  0
   -2.7372    1.6641   -2.5921 O   0  0  0  0  0  0  0  0  0  0  0  0
    2.2137    0.3715    1.4463 N   0  0  0  0  0  0  0  0  0  0  0  0
   -1.2358    0.6203   -1.2232 N   0  0  0  0  0  0  0  0  0  0  0  0
   -5.0939   -0.1908   -3.4403 N   0  0  0  0  0  0  0  0  0  0  0  0
   -5.4919   -4.3128   -3.0245 N   0  0  0  0  0  0  0  0  0  0  0  0
   -4.2882   -2.3348   -2.7463 N   0  0  0  0  0  0  0  0  0  0  0  0
   -3.2480   -2.9143   -2.0954 N   0  0  0  0  0  0  0  0  0  0  0  0
    5.9777    3.1780    3.7195 F   0  0  0  0  0  0  0  0  0  0  0  0
    4.3522   -1.3603    2.2388 H   0  0  0  0  0  0  0  0  0  0  0  0
    3.9929   -1.4143    3.9478 H   0  0  0  0  0  0  0  0  0  0  0  0
    5.5506   -0.8421    3.3998 H   0  0  0  0  0  0  0  0  0  0  0  0
    2.9685    0.2203    0.8398 H   0  0  0  0  0  0  0  0  0  0  0  0
    0.1608    0.2893    1.6446 H   0  0  0  0  0  0  0  0  0  0  0  0
    0.7879   -0.3815    0.1578 H   0  0  0  0  0  0  0  0  0  0  0  0
    0.7005    2.6067    0.7652 H   0  0  0  0  0  0  0  0  0  0  0  0
    1.4200    1.1534   -1.8469 H   0  0  0  0  0  0  0  0  0  0  0  0
    1.3347    2.8847   -1.6240 H   0  0  0  0  0  0  0  0  0  0  0  0
   -1.0350    2.7338   -0.8905 H   0  0  0  0  0  0  0  0  0  0  0  0
   -0.9536   -0.2390   -0.8459 H   0  0  0  0  0  0  0  0  0  0  0  0
   -6.8895   -0.2206   -4.4115 H   0  0  0  0  0  0  0  0  0  0  0  0
   -7.1633   -2.6557   -4.2694 H   0  0  0  0  0  0  0  0  0  0  0  0
   -6.3071   -4.7907   -3.2842 H   0  0  0  0  0  0  0  0  0  0  0  0
   -4.7527   -4.7984   -2.6025 H   0  0  0  0  0  0  0  0  0  0  0  0
   -1.5476   -1.9737   -1.2867 H   0  0  0  0  0  0  0  0  0  0  0  0
    5.0757    1.0557    4.9518 H   0  0  0  0  0  0  0  0  0  0  0  0
    3.4468    1.6888    4.9456 H   0  0  0  0  0  0  0  0  0  0  0  0
    4.0138    3.3655    3.2419 H   0  0  0  0  0  0  0  0  0  0  0  0
    4.3379    1.8573    1.3470 H   0  0  0  0  0  0  0  0  0  0  0  0
    5.7968    1.1953    2.0452 H   0  0  0  0  0  0  0  0  0  0  0  0
  1  2  1  0  0  0  0
  1 27  1  0  0  0  0
  1 28  1  0  0  0  0
  1 29  1  0  0  0  0
  2  3  1  6  0  0  0
  2 15  1  0  0  0  0
  2 17  1  0  0  0  0
  3 20  1  0  0  0  0
  3 18  2  0  0  0  0
  4 20  1  0  0  0  0
  4  5  1  0  0  0  0
  4 31  1  0  0  0  0
  4 32  1  0  0  0  0
  5  6  1  0  0  0  0
  5  7  1  0  0  0  0
  5 33  1  1  0  0  0
  6  7  1  0  0  0  0
  6 34  1  0  0  0  0
  6 35  1  0  0  0  0
  7 21  1  0  0  0  0
  7 36  1  6  0  0  0
  8 21  1  0  0  0  0
  8  9  1  0  0  0  0
  8 19  2  0  0  0  0
  9 14  1  0  0  0  0
  9 10  2  0  0  0  0
 10 22  1  0  0  0  0
 10 24  1  0  0  0  0
 11 12  1  0  0  0  0
 11 38  1  0  0  0  0
 11 22  2  0  0  0  0
 12 39  1  0  0  0  0
 12 13  2  0  0  0  0
 13 23  1  0  0  0  0
 13 24  1  0  0  0  0
 14 42  1  0  0  0  0
 14 25  2  0  0  0  0
 15 16  1  0  0  0  0
 15 43  1  0  0  0  0
 15 44  1  0  0  0  0
 16 26  1  0  0  0  0
 16 17  1  0  0  0  0
 16 45  1  6  0  0  0
 17 46  1  0  0  0  0
 17 47  1  0  0  0  0
 20 30  1  0  0  0  0
 21 37  1  0  0  0  0
 23 40  1  0  0  0  0
 23 41  1  0  0  0  0
 24 25  1  0  0  0  0
M  END
>  <score>
0.44926255941390991

$$$$
PV-003804793900
 OpenBabel08202115463D

 51 53  0  0  0  0  0  0  0  0999 V2000
    5.7011    1.8963    2.2205 C   0  0  0  0  0  0  0  0  0  0  0  0
    5.2049    0.4596    2.2107 C   0  0  0  0  0  0  0  0  0  0  0  0
    4.8118    0.0117    3.6090 C   0  0  0  0  0  0  0  0  0  0  0  0
    6.2218   -0.4598    1.5649 C   0  0  0  0  0  0  0  0  0  0  0  0
    3.0485    1.3624    1.8024 C   0  0  0  0  0  0  0  0  0  0  0  0
    2.0074    0.5297   -0.2937 C   0  0  0  0  0  0  0  0  0  0  0  0
    0.5151    0.4160   -0.5552 C   0  0  0  0  0  0  0  0  0  0  0  0
   -1.1109    2.2887   -0.4749 C   0  0  0  0  0  0  0  0  0  0  0  0
   -1.8843    1.5383   -1.5240 C   0  0  1  0  0  0  0  0  0  0  0  0
   -2.3777    0.2149   -0.9761 C   0  0  0  0  0  0  0  0  0  0  0  0
   -3.8601    0.4082   -1.0140 C   0  0  0  0  0  0  0  0  0  0  0  0
   -4.8369   -0.6247   -0.5083 C   0  0  0  0  0  0  0  0  0  0  0  0
   -4.9985   -1.7776   -1.4706 C   0  0  0  0  0  0  0  0  0  0  0  0
   -4.2342   -2.9189   -1.3171 C   0  0  0  0  0  0  0  0  0  0  0  0
   -4.3869   -3.9787   -2.1974 C   0  0  0  0  0  0  0  0  0  0  0  0
   -5.2996   -3.8921   -3.2317 C   0  0  0  0  0  0  0  0  0  0  0  0
   -6.0661   -2.7474   -3.3856 C   0  0  0  0  0  0  0  0  0  0  0  0
   -5.9139   -1.6906   -2.5079 C   0  0  0  0  0  0  0  0  0  0  0  0
    0.8772    2.2422    0.9975 C   0  0  0  0  0  0  0  0  0  0  0  0
    4.0357    0.5533    1.3821 O   0  0  0  0  0  0  0  0  0  0  0  0
    3.0520    1.9853    2.8341 O   0  0  0  0  0  0  0  0  0  0  0  0
   -1.4976    3.3756   -0.0536 O   0  0  0  0  0  0  0  0  0  0  0  0
   -3.0885    2.2683   -1.8909 O   0  0  0  0  0  0  0  0  0  0  0  0
    2.0491    1.3785    0.9017 N   0  0  0  0  0  0  0  0  0  0  0  0
    0.0119    1.6942   -0.0413 N   0  0  0  0  0  0  0  0  0  0  0  0
   -4.2252    1.5252   -1.5125 N   0  0  0  0  0  0  0  0  0  0  0  0
    6.6343    1.9484    2.7413 H   0  0  0  0  0  0  0  0  0  0  0  0
    4.9829    2.5181    2.7129 H   0  0  0  0  0  0  0  0  0  0  0  0
    5.8353    2.2338    1.2140 H   0  0  0  0  0  0  0  0  0  0  0  0
    4.1495    0.7320    4.0418 H   0  0  0  0  0  0  0  0  0  0  0  0
    5.6892   -0.0752    4.2153 H   0  0  0  0  0  0  0  0  0  0  0  0
    4.3201   -0.9371    3.5543 H   0  0  0  0  0  0  0  0  0  0  0  0
    5.8086   -1.4427    1.4754 H   0  0  0  0  0  0  0  0  0  0  0  0
    7.1033   -0.4974    2.1702 H   0  0  0  0  0  0  0  0  0  0  0  0
    6.4715   -0.0883    0.5930 H   0  0  0  0  0  0  0  0  0  0  0  0
    2.4419   -0.4294   -0.1035 H   0  0  0  0  0  0  0  0  0  0  0  0
    2.5110    0.9933   -1.1161 H   0  0  0  0  0  0  0  0  0  0  0  0
    0.3115    0.3112   -1.6004 H   0  0  0  0  0  0  0  0  0  0  0  0
    0.0902   -0.4099   -0.0239 H   0  0  0  0  0  0  0  0  0  0  0  0
   -1.2638    1.3819   -2.3816 H   0  0  0  0  0  0  0  0  0  0  0  0
   -2.0307    0.0523    0.0229 H   0  0  0  0  0  0  0  0  0  0  0  0
   -2.0746   -0.6021   -1.5970 H   0  0  0  0  0  0  0  0  0  0  0  0
   -5.7893   -0.1579   -0.3671 H   0  0  0  0  0  0  0  0  0  0  0  0
   -4.4829   -1.0042    0.4274 H   0  0  0  0  0  0  0  0  0  0  0  0
   -3.5446   -2.9825   -0.5412 H   0  0  0  0  0  0  0  0  0  0  0  0
   -3.8147   -4.8391   -2.0795 H   0  0  0  0  0  0  0  0  0  0  0  0
   -5.4112   -4.6857   -3.8946 H   0  0  0  0  0  0  0  0  0  0  0  0
   -6.7557   -2.6838   -4.1614 H   0  0  0  0  0  0  0  0  0  0  0  0
   -6.4861   -0.8302   -2.6257 H   0  0  0  0  0  0  0  0  0  0  0  0
    1.1287    3.2624    0.7957 H   0  0  0  0  0  0  0  0  0  0  0  0
    0.4197    2.1712    1.9621 H   0  0  0  0  0  0  0  0  0  0  0  0
  1  2  1  0  0  0  0
  1 27  1  0  0  0  0
  1 28  1  0  0  0  0
  1 29  1  0  0  0  0
  2  3  1  0  0  0  0
  2  4  1  0  0  0  0
  2 20  1  0  0  0  0
  3 30  1  0  0  0  0
  3 31  1  0  0  0  0
  3 32  1  0  0  0  0
  4 33  1  0  0  0  0
  4 34  1  0  0  0  0
  4 35  1  0  0  0  0
  5 20  1  0  0  0  0
  5 24  1  0  0  0  0
  5 21  2  0  0  0  0
  6 24  1  0  0  0  0
  6  7  1  0  0  0  0
  6 36  1  0  0  0  0
  6 37  1  0  0  0  0
  7 25  1  0  0  0  0
  7 38  1  0  0  0  0
  7 39  1  0  0  0  0
  8 25  1  0  0  0  0
  8  9  1  0  0  0  0
  8 22  2  0  0  0  0
  9 10  1  0  0  0  0
  9 23  1  0  0  0  0
  9 40  1  6  0  0  0
 10 11  1  0  0  0  0
 10 41  1  0  0  0  0
 10 42  1  0  0  0  0
 11 12  1  0  0  0  0
 11 26  2  0  0  0  0
 12 13  1  0  0  0  0
 12 43  1  0  0  0  0
 12 44  1  0  0  0  0
 13 18  1  0  0  0  0
 13 14  2  0  0  0  0
 14 15  1  0  0  0  0
 14 45  1  0  0  0  0
 15 46  1  0  0  0  0
 15 16  2  0  0  0  0
 16 17  1  0  0  0  0
 16 47  1  0  0  0  0
 17 48  1  0  0  0  0
 17 18  2  0  0  0  0
 18 49  1  0  0  0  0
 19 24  1  0  0  0  0
 19 25  1  0  0  0  0
 19 50  1  0  0  0  0
 19 51  1  0  0  0  0
 26 23  1  0  0  0  0
M  END
>  <score>
0.44932138919830322

$$$$
PV-003434148891
 OpenBabel08202115463D

 57 60  0  0  0  0  0  0  0  0999 V2000
   -3.2616    0.3600   -1.1400 C   0  0  0  0  0  0  0  0  0  0  0  0
   -2.8114   -1.9882   -1.2060 C   0  0  0  0  0  0  0  0  0  0  0  0
   -4.0758   -2.0207   -2.0222 C   0  0  0  0  0  0  0  0  0  0  0  0
   -4.4598   -3.4244   -2.4717 C   0  0  1  0  0  0  0  0  0  0  0  0
   -5.6044   -4.1695   -1.7767 C   0  0  0  0  0  0  0  0  0  0  0  0
   -5.7463   -3.6578   -3.1591 C   0  0  0  0  0  0  0  0  0  0  0  0
   -6.7531   -2.8827   -3.9252 C   0  0  0  0  0  0  0  0  0  0  0  0
   -6.2314   -4.2184   -4.4410 C   0  0  0  0  0  0  0  0  0  0  0  0
   -1.1703   -0.5756   -0.0671 C   0  0  1  0  0  0  0  0  0  0  0  0
   -0.2891    0.5812   -0.5889 C   0  0  0  0  0  0  0  0  0  0  0  0
   -0.1166    1.1175    0.8653 C   0  0  1  0  0  0  0  0  0  0  0  0
    2.2283    1.5261    1.4426 C   0  0  0  0  0  0  0  0  0  0  0  0
    3.4249    0.9397    2.0994 C   0  0  0  0  0  0  0  0  0  0  0  0
    3.4160   -0.2458    2.8083 C   0  0  0  0  0  0  0  0  0  0  0  0
    5.4561    0.6507    3.0192 C   0  0  0  0  0  0  0  0  0  0  0  0
    4.7009    1.5070    2.2294 C   0  0  0  0  0  0  0  0  0  0  0  0
    5.1828    2.8683    1.7152 C   0  0  0  0  0  0  0  0  0  0  0  0
    5.0426    2.9357    0.1915 C   0  0  0  0  0  0  0  0  0  0  0  0
    6.6506    3.1096    2.0737 C   0  0  0  0  0  0  0  0  0  0  0  0
    4.3424    3.9815    2.3444 C   0  0  0  0  0  0  0  0  0  0  0  0
   -1.3279    0.2319    1.2554 C   0  0  0  0  0  0  0  0  0  0  0  0
   -2.4086   -0.7771   -0.8069 N   0  0  0  0  0  0  0  0  0  0  0  0
    1.1365    0.7487    1.5042 N   0  0  0  0  0  0  0  0  0  0  0  0
    4.6662   -0.4043    3.3635 N   0  0  0  0  0  0  0  0  0  0  0  0
   -2.2008   -3.0208   -0.9333 O   0  0  0  0  0  0  0  0  0  0  0  0
    2.2699    2.6286    0.9000 O   0  0  0  0  0  0  0  0  0  0  0  0
   -4.2870    0.0548   -1.1217 H   0  0  0  0  0  0  0  0  0  0  0  0
   -3.0135    0.7174   -2.1176 H   0  0  0  0  0  0  0  0  0  0  0  0
   -3.1094    1.1413   -0.4249 H   0  0  0  0  0  0  0  0  0  0  0  0
   -3.9365   -1.4112   -2.8905 H   0  0  0  0  0  0  0  0  0  0  0  0
   -4.8735   -1.6225   -1.4305 H   0  0  0  0  0  0  0  0  0  0  0  0
   -3.5821   -3.9536   -2.7792 H   0  0  0  0  0  0  0  0  0  0  0  0
   -5.5310   -5.2217   -1.5970 H   0  0  0  0  0  0  0  0  0  0  0  0
   -6.1390   -3.7064   -0.9738 H   0  0  0  0  0  0  0  0  0  0  0  0
   -6.4733   -1.9720   -4.4124 H   0  0  0  0  0  0  0  0  0  0  0  0
   -7.7570   -2.8009   -3.5642 H   0  0  0  0  0  0  0  0  0  0  0  0
   -5.5843   -4.2496   -5.2926 H   0  0  0  0  0  0  0  0  0  0  0  0
   -6.8680   -5.0784   -4.4445 H   0  0  0  0  0  0  0  0  0  0  0  0
   -0.6615   -1.5109    0.0392 H   0  0  0  0  0  0  0  0  0  0  0  0
    0.6238    0.2611   -1.0462 H   0  0  0  0  0  0  0  0  0  0  0  0
   -0.7994    1.2558   -1.2442 H   0  0  0  0  0  0  0  0  0  0  0  0
   -0.2779    2.1695    0.9759 H   0  0  0  0  0  0  0  0  0  0  0  0
    1.1852   -0.0970    1.9969 H   0  0  0  0  0  0  0  0  0  0  0  0
    2.6125   -0.8990    2.9050 H   0  0  0  0  0  0  0  0  0  0  0  0
    4.9450   -1.1604    3.9211 H   0  0  0  0  0  0  0  0  0  0  0  0
    6.4482    0.7900    3.2982 H   0  0  0  0  0  0  0  0  0  0  0  0
    4.0071    2.8905   -0.0742 H   0  0  0  0  0  0  0  0  0  0  0  0
    5.5605    2.1106   -0.2509 H   0  0  0  0  0  0  0  0  0  0  0  0
    5.4621    3.8533   -0.1647 H   0  0  0  0  0  0  0  0  0  0  0  0
    7.1009    3.7365    1.3326 H   0  0  0  0  0  0  0  0  0  0  0  0
    7.1672    2.1733    2.1101 H   0  0  0  0  0  0  0  0  0  0  0  0
    6.7102    3.5878    3.0290 H   0  0  0  0  0  0  0  0  0  0  0  0
    3.3045    3.7867    2.1715 H   0  0  0  0  0  0  0  0  0  0  0  0
    4.6069    4.9201    1.9039 H   0  0  0  0  0  0  0  0  0  0  0  0
    4.5279    4.0163    3.3976 H   0  0  0  0  0  0  0  0  0  0  0  0
   -2.2518    0.7663    1.3324 H   0  0  0  0  0  0  0  0  0  0  0  0
   -1.1762   -0.3486    2.1414 H   0  0  0  0  0  0  0  0  0  0  0  0
  1 22  1  0  0  0  0
  1 27  1  0  0  0  0
  1 28  1  0  0  0  0
  1 29  1  0  0  0  0
  2 22  1  0  0  0  0
  2  3  1  0  0  0  0
  2 25  2  0  0  0  0
  3  4  1  0  0  0  0
  3 30  1  0  0  0  0
  3 31  1  0  0  0  0
  4  5  1  0  0  0  0
  4  6  1  0  0  0  0
  4 32  1  6  0  0  0
  5  6  1  0  0  0  0
  5 33  1  0  0  0  0
  5 34  1  0  0  0  0
  6  7  1  0  0  0  0
  6  8  1  0  0  0  0
  7  8  1  0  0  0  0
  7 35  1  0  0  0  0
  7 36  1  0  0  0  0
  8 37  1  0  0  0  0
  8 38  1  0  0  0  0
  9 22  1  0  0  0  0
  9 10  1  0  0  0  0
  9 21  1  0  0  0  0
  9 39  1  1  0  0  0
 10 11  1  0  0  0  0
 10 40  1  0  0  0  0
 10 41  1  0  0  0  0
 11 23  1  0  0  0  0
 11 21  1  0  0  0  0
 11 42  1  1  0  0  0
 12 23  1  0  0  0  0
 12 13  1  0  0  0  0
 12 26  2  0  0  0  0
 13 16  1  0  0  0  0
 13 14  2  0  0  0  0
 14 24  1  0  0  0  0
 14 44  1  0  0  0  0
 15 24  1  0  0  0  0
 15 46  1  0  0  0  0
 15 16  2  0  0  0  0
 16 17  1  0  0  0  0
 17 18  1  0  0  0  0
 17 19  1  0  0  0  0
 17 20  1  0  0  0  0
 18 47  1  0  0  0  0
 18 48  1  0  0  0  0
 18 49  1  0  0  0  0
 19 50  1  0  0  0  0
 19 51  1  0  0  0  0
 19 52  1  0  0  0  0
 20 53  1  0  0  0  0
 20 54  1  0  0  0  0
 20 55  1  0  0  0  0
 21 56  1  0  0  0  0
 21 57  1  0  0  0  0
 23 43  1  0  0  0  0
 24 45  1  0  0  0  0
M  END
>  <score>
0.44948512315750122

$$$$
PV-002834543758
 OpenBabel08202115463D

 39 41  0  0  0  0  0  0  0  0999 V2000
    5.2337    0.1024    2.2819 C   0  0  0  0  0  0  0  0  0  0  0  0
    4.4986    1.4154    2.1506 C   0  0  0  0  0  0  0  0  0  0  0  0
    5.0860    2.5580    2.6435 C   0  0  0  0  0  0  0  0  0  0  0  0
    4.4500    3.7997    2.5344 C   0  0  0  0  0  0  0  0  0  0  0  0
    3.2206    3.9166    1.9378 C   0  0  0  0  0  0  0  0  0  0  0  0
    2.5911    2.7734    1.4269 C   0  0  0  0  0  0  0  0  0  0  0  0
    3.2481    1.5320    1.5524 C   0  0  0  0  0  0  0  0  0  0  0  0
    1.2964    1.1813    0.4930 C   0  0  0  0  0  0  0  0  0  0  0  0
    0.2815    0.3070   -0.1913 C   0  0  0  0  0  0  0  0  0  0  0  0
   -2.3822   -1.1094   -0.5905 C   0  0  0  0  0  0  0  0  0  0  0  0
   -3.2588   -2.0862   -1.3188 C   0  0  0  0  0  0  0  0  0  0  0  0
   -6.4367   -2.9871   -2.5380 C   0  0  0  0  0  0  0  0  0  0  0  0
   -4.0374   -3.8153   -2.4461 C   0  0  0  0  0  0  0  0  0  0  0  0
   -2.8828   -3.3029   -1.9040 C   0  0  0  0  0  0  0  0  0  0  0  0
    1.3504    2.5269    0.7552 C   0  0  0  0  0  0  0  0  0  0  0  0
    2.4383    0.5679    0.9855 N   0  0  0  0  0  0  0  0  0  0  0  0
   -0.8001    0.9976   -0.7042 N   0  0  0  0  0  0  0  0  0  0  0  0
   -4.5655   -1.8572   -1.4796 N   0  0  0  0  0  0  0  0  0  0  0  0
   -5.0238   -2.9266   -2.1793 N   0  0  0  0  0  0  0  0  0  0  0  0
    0.4316   -0.9050   -0.2692 O   0  0  0  0  0  0  0  0  0  0  0  0
   -1.2154   -0.3293   -2.7053 O   0  0  0  0  0  0  0  0  0  0  0  0
   -3.0891    1.0018   -1.8355 O   0  0  0  0  0  0  0  0  0  0  0  0
   -1.8818    0.2793   -1.5939 S   0  0  0  0  0  0  0  0  0  0  0  0
    4.9811   -0.3566    3.2148 H   0  0  0  0  0  0  0  0  0  0  0  0
    6.2884    0.2793    2.2457 H   0  0  0  0  0  0  0  0  0  0  0  0
    4.9524   -0.5455    1.4781 H   0  0  0  0  0  0  0  0  0  0  0  0
    6.0166    2.4979    3.1040 H   0  0  0  0  0  0  0  0  0  0  0  0
    4.9175    4.6484    2.9121 H   0  0  0  0  0  0  0  0  0  0  0  0
    2.7593    4.8459    1.8652 H   0  0  0  0  0  0  0  0  0  0  0  0
    2.6375   -0.3905    0.9390 H   0  0  0  0  0  0  0  0  0  0  0  0
   -0.8956    1.9534   -0.5101 H   0  0  0  0  0  0  0  0  0  0  0  0
   -2.9192   -0.7388    0.2576 H   0  0  0  0  0  0  0  0  0  0  0  0
   -1.5036   -1.6231   -0.2603 H   0  0  0  0  0  0  0  0  0  0  0  0
   -6.5836   -2.5225   -3.4907 H   0  0  0  0  0  0  0  0  0  0  0  0
   -7.0146   -2.4736   -1.7982 H   0  0  0  0  0  0  0  0  0  0  0  0
   -6.7483   -4.0095   -2.5883 H   0  0  0  0  0  0  0  0  0  0  0  0
   -4.1347   -4.7130   -2.9621 H   0  0  0  0  0  0  0  0  0  0  0  0
   -1.9335   -3.7272   -1.9238 H   0  0  0  0  0  0  0  0  0  0  0  0
    0.6274    3.2340    0.5123 H   0  0  0  0  0  0  0  0  0  0  0  0
  1  2  1  0  0  0  0
  1 24  1  0  0  0  0
  1 25  1  0  0  0  0
  1 26  1  0  0  0  0
  2  7  1  0  0  0  0
  2  3  2  0  0  0  0
  3  4  1  0  0  0  0
  3 27  1  0  0  0  0
  4 28  1  0  0  0  0
  4  5  2  0  0  0  0
  5  6  1  0  0  0  0
  5 29  1  0  0  0  0
  6 15  1  0  0  0  0
  6  7  2  0  0  0  0
  7 16  1  0  0  0  0
  8 16  1  0  0  0  0
  8  9  1  0  0  0  0
  8 15  2  0  0  0  0
  9 17  1  0  0  0  0
  9 20  2  0  0  0  0
 10 11  1  0  0  0  0
 10 32  1  0  0  0  0
 10 33  1  0  0  0  0
 11 14  1  0  0  0  0
 11 18  2  0  0  0  0
 12 19  1  0  0  0  0
 12 34  1  0  0  0  0
 12 35  1  0  0  0  0
 12 36  1  0  0  0  0
 13 19  1  0  0  0  0
 13 37  1  0  0  0  0
 13 14  2  0  0  0  0
 14 38  1  0  0  0  0
 15 39  1  0  0  0  0
 16 30  1  0  0  0  0
 17 31  1  0  0  0  0
 18 19  1  0  0  0  0
 23 17  1  0  0  0  0
 23 10  1  0  0  0  0
 23 21  2  0  0  0  0
 23 22  2  0  0  0  0
M  END
>  <score>
0.44953542947769165

$$$$
PV-003340634300
 OpenBabel08202115463D

 54 55  0  0  0  0  0  0  0  0999 V2000
   -5.9986   -4.2044   -2.6301 C   0  0  0  0  0  0  0  0  0  0  0  0
   -5.5426   -3.1479   -3.6253 C   0  0  2  0  0  0  0  0  0  0  0  0
   -4.5011   -2.2646   -3.0039 C   0  0  0  0  0  0  0  0  0  0  0  0
   -3.6153   -0.8884   -1.7261 C   0  0  0  0  0  0  0  0  0  0  0  0
   -3.3590    0.1183   -0.6321 C   0  0  0  0  0  0  0  0  0  0  0  0
   -1.1121    0.0706    0.3486 C   0  0  0  0  0  0  0  0  0  0  0  0
    0.2968    0.6211    0.3218 C   0  0  0  0  0  0  0  0  0  0  0  0
    1.0523    0.1446    1.5554 C   0  0  0  0  0  0  0  0  0  0  0  0
    2.4104    0.7784    1.6965 C   0  0  0  0  0  0  0  0  0  0  0  0
    4.5093    0.8940    3.0071 C   0  0  0  0  0  0  0  0  0  0  0  0
    4.4460    2.3703    3.3631 C   0  0  0  0  0  0  0  0  0  0  0  0
    5.3309    0.7051    1.7423 C   0  0  0  0  0  0  0  0  0  0  0  0
    5.1319    0.1083    4.1498 C   0  0  0  0  0  0  0  0  0  0  0  0
    0.2785    2.1508    0.2561 C   0  0  0  0  0  0  0  0  0  0  0  0
    0.3719    2.4972   -1.2359 C   0  0  0  0  0  0  0  0  0  0  0  0
    0.4597    1.1614   -1.9817 C   0  0  0  0  0  0  0  0  0  0  0  0
    1.0222    0.1896   -0.9575 C   0  0  0  0  0  0  0  0  0  0  0  0
   -6.6259   -2.3622   -4.0838 O   0  0  0  0  0  0  0  0  0  0  0  0
   -1.4338   -0.7489    1.2079 O   0  0  0  0  0  0  0  0  0  0  0  0
    2.8649    1.5933    0.9158 O   0  0  0  0  0  0  0  0  0  0  0  0
   -3.2591   -2.2098   -3.4480 N   0  0  0  0  0  0  0  0  0  0  0  0
   -2.7010   -1.3087   -2.5967 N   0  0  0  0  0  0  0  0  0  0  0  0
   -1.9750    0.5814   -0.5343 N   0  0  0  0  0  0  0  0  0  0  0  0
    3.1267    0.3949    2.7571 N   0  0  0  0  0  0  0  0  0  0  0  0
   -4.7771   -1.4736   -1.9518 N   0  0  0  0  0  0  0  0  0  0  0  0
   -6.7185   -4.8455   -3.0947 H   0  0  0  0  0  0  0  0  0  0  0  0
   -6.4418   -3.7269   -1.7814 H   0  0  0  0  0  0  0  0  0  0  0  0
   -5.1564   -4.7840   -2.3145 H   0  0  0  0  0  0  0  0  0  0  0  0
   -5.0940   -3.6509   -4.4563 H   0  0  0  0  0  0  0  0  0  0  0  0
   -6.7283   -1.5950   -3.5159 H   0  0  0  0  0  0  0  0  0  0  0  0
   -1.7669   -1.0134   -2.6206 H   0  0  0  0  0  0  0  0  0  0  0  0
   -3.6261   -0.3305    0.3018 H   0  0  0  0  0  0  0  0  0  0  0  0
   -3.9825    0.9693   -0.8107 H   0  0  0  0  0  0  0  0  0  0  0  0
   -1.6700    1.2911   -1.1374 H   0  0  0  0  0  0  0  0  0  0  0  0
    1.1768   -0.9162    1.4899 H   0  0  0  0  0  0  0  0  0  0  0  0
    0.4732    0.3834    2.4228 H   0  0  0  0  0  0  0  0  0  0  0  0
    2.7295   -0.2364    3.3928 H   0  0  0  0  0  0  0  0  0  0  0  0
    4.2465    2.9422    2.4809 H   0  0  0  0  0  0  0  0  0  0  0  0
    5.3816    2.6764    3.7822 H   0  0  0  0  0  0  0  0  0  0  0  0
    3.6651    2.5318    4.0766 H   0  0  0  0  0  0  0  0  0  0  0  0
    6.2838    1.1770    1.8615 H   0  0  0  0  0  0  0  0  0  0  0  0
    4.8162    1.1455    0.9140 H   0  0  0  0  0  0  0  0  0  0  0  0
    5.4709   -0.3401    1.5610 H   0  0  0  0  0  0  0  0  0  0  0  0
    4.5171    0.1972    5.0210 H   0  0  0  0  0  0  0  0  0  0  0  0
    6.1064    0.4969    4.3601 H   0  0  0  0  0  0  0  0  0  0  0  0
    5.2104   -0.9221    3.8726 H   0  0  0  0  0  0  0  0  0  0  0  0
    1.1133    2.5579    0.7875 H   0  0  0  0  0  0  0  0  0  0  0  0
   -0.6304    2.5322    0.6724 H   0  0  0  0  0  0  0  0  0  0  0  0
   -0.4977    3.0381   -1.5458 H   0  0  0  0  0  0  0  0  0  0  0  0
    1.2451    3.0857   -1.4257 H   0  0  0  0  0  0  0  0  0  0  0  0
    1.1132    1.2417   -2.8253 H   0  0  0  0  0  0  0  0  0  0  0  0
   -0.5091    0.8469   -2.3091 H   0  0  0  0  0  0  0  0  0  0  0  0
    0.7896   -0.8229   -1.2136 H   0  0  0  0  0  0  0  0  0  0  0  0
    2.0820    0.2987   -0.8590 H   0  0  0  0  0  0  0  0  0  0  0  0
  1  2  1  0  0  0  0
  1 26  1  0  0  0  0
  1 27  1  0  0  0  0
  1 28  1  0  0  0  0
  2 18  1  0  0  0  0
  2  3  1  0  0  0  0
  2 29  1  6  0  0  0
  3 25  1  0  0  0  0
  3 21  2  0  0  0  0
  4 22  1  0  0  0  0
  4  5  1  0  0  0  0
  4 25  2  0  0  0  0
  5 23  1  0  0  0  0
  5 32  1  0  0  0  0
  5 33  1  0  0  0  0
  6 23  1  0  0  0  0
  6  7  1  0  0  0  0
  6 19  2  0  0  0  0
  7  8  1  0  0  0  0
  7 14  1  0  0  0  0
  7 17  1  0  0  0  0
  8  9  1  0  0  0  0
  8 35  1  0  0  0  0
  8 36  1  0  0  0  0
  9 24  1  0  0  0  0
  9 20  2  0  0  0  0
 10 24  1  0  0  0  0
 10 11  1  0  0  0  0
 10 12  1  0  0  0  0
 10 13  1  0  0  0  0
 11 38  1  0  0  0  0
 11 39  1  0  0  0  0
 11 40  1  0  0  0  0
 12 41  1  0  0  0  0
 12 42  1  0  0  0  0
 12 43  1  0  0  0  0
 13 44  1  0  0  0  0
 13 45  1  0  0  0  0
 13 46  1  0  0  0  0
 14 15  1  0  0  0  0
 14 47  1  0  0  0  0
 14 48  1  0  0  0  0
 15 16  1  0  0  0  0
 15 49  1  0  0  0  0
 15 50  1  0  0  0  0
 16 17  1  0  0  0  0
 16 51  1  0  0  0  0
 16 52  1  0  0  0  0
 17 53  1  0  0  0  0
 17 54  1  0  0  0  0
 18 30  1  0  0  0  0
 21 22  1  0  0  0  0
 22 31  1  0  0  0  0
 23 34  1  0  0  0  0
 24 37  1  0  0  0  0
M  END
>  <score>
0.44953864812850952

$$$$
PV-004074799781
 OpenBabel08202115463D

 51 52  0  0  0  0  0  0  0  0999 V2000
    6.9045   -0.5147    3.3783 C   0  0  0  0  0  0  0  0  0  0  0  0
    7.0801    0.8843    2.8105 C   0  0  0  0  0  0  0  0  0  0  0  0
    5.7485    1.4815    2.4412 C   0  0  0  0  0  0  0  0  0  0  0  0
    3.9233    2.1457    1.4192 C   0  0  0  0  0  0  0  0  0  0  0  0
    2.7085    2.5580    0.6248 C   0  0  0  0  0  0  0  0  0  0  0  0
    1.6392    1.4952    0.6251 C   0  0  0  0  0  0  0  0  0  0  0  0
   -0.7496    1.0097    0.1877 C   0  0  0  0  0  0  0  0  0  0  0  0
   -2.0146    1.8002   -0.1009 C   0  0  0  0  0  0  0  0  0  0  0  0
   -0.9353    0.1992    1.4578 C   0  0  0  0  0  0  0  0  0  0  0  0
   -0.4253    0.0820   -0.9625 C   0  0  0  0  0  0  0  0  0  0  0  0
   -1.4107   -2.1545   -0.4659 C   0  0  0  0  0  0  0  0  0  0  0  0
   -2.4660   -0.6465   -2.0741 C   0  0  0  0  0  0  0  0  0  0  0  0
   -3.6681   -1.5511   -2.0224 C   0  0  0  0  0  0  0  0  0  0  0  0
   -4.7493   -1.1621   -3.0175 C   0  0  0  0  0  0  0  0  0  0  0  0
   -6.2328   -3.2036   -3.3926 C   0  0  0  0  0  0  0  0  0  0  0  0
    5.0684    1.4778    1.1950 C   0  0  0  0  0  0  0  0  0  0  0  0
    5.0566    2.1160    3.3599 N   0  0  0  0  0  0  0  0  0  0  0  0
    0.3819    1.9329    0.4525 N   0  0  0  0  0  0  0  0  0  0  0  0
   -1.4819   -0.9018   -1.2054 N   0  0  0  0  0  0  0  0  0  0  0  0
   -5.9490   -1.9923   -2.8962 N   0  0  0  0  0  0  0  0  0  0  0  0
   -7.4021   -3.5978   -2.9111 N   0  0  0  0  0  0  0  0  0  0  0  0
   -7.8253   -2.5882   -2.1047 N   0  0  0  0  0  0  0  0  0  0  0  0
   -6.9679   -1.6175   -2.0874 N   0  0  0  0  0  0  0  0  0  0  0  0
    3.8753    2.5428    2.7153 O   0  0  0  0  0  0  0  0  0  0  0  0
    1.9178    0.3168    0.7741 O   0  0  0  0  0  0  0  0  0  0  0  0
   -2.4581    0.3178   -2.8348 O   0  0  0  0  0  0  0  0  0  0  0  0
    7.8473   -0.8783    3.7301 H   0  0  0  0  0  0  0  0  0  0  0  0
    6.5342   -1.1656    2.6140 H   0  0  0  0  0  0  0  0  0  0  0  0
    6.2084   -0.4850    4.1903 H   0  0  0  0  0  0  0  0  0  0  0  0
    7.6962    0.8337    1.9372 H   0  0  0  0  0  0  0  0  0  0  0  0
    7.5511    1.5042    3.5445 H   0  0  0  0  0  0  0  0  0  0  0  0
    3.0058    2.7471   -0.3856 H   0  0  0  0  0  0  0  0  0  0  0  0
    2.3052    3.4524    1.0518 H   0  0  0  0  0  0  0  0  0  0  0  0
    0.2050    2.8955    0.5032 H   0  0  0  0  0  0  0  0  0  0  0  0
   -2.6345    1.2481   -0.7760 H   0  0  0  0  0  0  0  0  0  0  0  0
   -1.7549    2.7395   -0.5426 H   0  0  0  0  0  0  0  0  0  0  0  0
   -2.5452    1.9697    0.8127 H   0  0  0  0  0  0  0  0  0  0  0  0
   -1.0752    0.8612    2.2868 H   0  0  0  0  0  0  0  0  0  0  0  0
   -0.0675   -0.4038    1.6259 H   0  0  0  0  0  0  0  0  0  0  0  0
   -1.7939   -0.4311    1.3561 H   0  0  0  0  0  0  0  0  0  0  0  0
    0.4824   -0.4381   -0.7379 H   0  0  0  0  0  0  0  0  0  0  0  0
   -0.2917    0.6675   -1.8480 H   0  0  0  0  0  0  0  0  0  0  0  0
   -0.5424   -2.7004   -0.7708 H   0  0  0  0  0  0  0  0  0  0  0  0
   -2.2860   -2.7366   -0.6657 H   0  0  0  0  0  0  0  0  0  0  0  0
   -1.3513   -1.9469    0.5821 H   0  0  0  0  0  0  0  0  0  0  0  0
   -4.0822   -1.5111   -1.0366 H   0  0  0  0  0  0  0  0  0  0  0  0
   -3.3517   -2.5505   -2.2366 H   0  0  0  0  0  0  0  0  0  0  0  0
   -4.3579   -1.2677   -4.0077 H   0  0  0  0  0  0  0  0  0  0  0  0
   -5.0203   -0.1410   -2.8475 H   0  0  0  0  0  0  0  0  0  0  0  0
   -5.6338   -3.7452   -4.0479 H   0  0  0  0  0  0  0  0  0  0  0  0
    5.3870    1.0508    0.3019 H   0  0  0  0  0  0  0  0  0  0  0  0
  1  2  1  0  0  0  0
  1 27  1  0  0  0  0
  1 28  1  0  0  0  0
  1 29  1  0  0  0  0
  2  3  1  0  0  0  0
  2 30  1  0  0  0  0
  2 31  1  0  0  0  0
  3 16  1  0  0  0  0
  3 17  2  0  0  0  0
  4 24  1  0  0  0  0
  4  5  1  0  0  0  0
  4 16  2  0  0  0  0
  5  6  1  0  0  0  0
  5 32  1  0  0  0  0
  5 33  1  0  0  0  0
  6 18  1  0  0  0  0
  6 25  2  0  0  0  0
  7 18  1  0  0  0  0
  7  8  1  0  0  0  0
  7  9  1  0  0  0  0
  7 10  1  0  0  0  0
  8 35  1  0  0  0  0
  8 36  1  0  0  0  0
  8 37  1  0  0  0  0
  9 38  1  0  0  0  0
  9 39  1  0  0  0  0
  9 40  1  0  0  0  0
 10 19  1  0  0  0  0
 10 41  1  0  0  0  0
 10 42  1  0  0  0  0
 11 19  1  0  0  0  0
 11 43  1  0  0  0  0
 11 44  1  0  0  0  0
 11 45  1  0  0  0  0
 12 19  1  0  0  0  0
 12 13  1  0  0  0  0
 12 26  2  0  0  0  0
 13 14  1  0  0  0  0
 13 46  1  0  0  0  0
 13 47  1  0  0  0  0
 14 20  1  0  0  0  0
 14 48  1  0  0  0  0
 14 49  1  0  0  0  0
 15 20  1  0  0  0  0
 15 50  1  0  0  0  0
 15 21  2  0  0  0  0
 16 51  1  0  0  0  0
 17 24  1  0  0  0  0
 18 34  1  0  0  0  0
 20 23  1  0  0  0  0
 21 22  1  0  0  0  0
 22 23  2  0  0  0  0
M  END
>  <score>
0.449554443359375

$$$$
PV-004092126571
 OpenBabel08202115463D

 51 52  0  0  0  0  0  0  0  0999 V2000
    5.7417    0.2005    1.7481 C   0  0  0  0  0  0  0  0  0  0  0  0
    5.2232    2.1866    3.0446 C   0  0  0  0  0  0  0  0  0  0  0  0
    3.8191    2.5425    2.6114 C   0  0  0  0  0  0  0  0  0  0  0  0
    1.5837    1.7166    1.9475 C   0  0  0  0  0  0  0  0  0  0  0  0
    1.2923    1.2066    0.5353 C   0  0  1  0  0  0  0  0  0  0  0  0
    1.5451   -0.2947    0.4414 C   0  0  0  0  0  0  0  0  0  0  0  0
    0.4017   -0.9026   -0.3802 C   0  0  0  0  0  0  0  0  0  0  0  0
   -0.8254   -0.0450    0.0778 C   0  0  1  0  0  0  0  0  0  0  0  0
   -2.8951   -0.9708   -0.8461 C   0  0  0  0  0  0  0  0  0  0  0  0
   -3.8964   -0.9112   -1.9685 C   0  0  0  0  0  0  0  0  0  0  0  0
   -4.7676   -2.1574   -2.0576 C   0  0  0  0  0  0  0  0  0  0  0  0
   -5.5795   -2.2345   -3.3403 C   0  0  0  0  0  0  0  0  0  0  0  0
   -0.2288    1.3702    0.1897 C   0  0  0  0  0  0  0  0  0  0  0  0
    6.3512    3.1549    2.8715 C   0  0  0  0  0  0  0  0  0  0  0  0
    5.7751    2.9176    4.2320 C   0  0  0  0  0  0  0  0  0  0  0  0
    5.6097    0.8053    3.0293 O   0  0  0  0  0  0  0  0  0  0  0  0
    3.4803    3.7150    2.4746 O   0  0  0  0  0  0  0  0  0  0  0  0
   -3.0068   -1.7868    0.0650 O   0  0  0  0  0  0  0  0  0  0  0  0
   -7.6123   -3.6606   -2.5836 O   0  0  0  0  0  0  0  0  0  0  0  0
   -5.7878   -4.7759   -3.8483 O   0  0  0  0  0  0  0  0  0  0  0  0
    2.9618    1.5464    2.3829 N   0  0  0  0  0  0  0  0  0  0  0  0
   -1.8950   -0.0874   -0.9129 N   0  0  0  0  0  0  0  0  0  0  0  0
   -7.4056   -3.3113   -5.0357 N   0  0  0  0  0  0  0  0  0  0  0  0
   -6.6627   -3.6854   -3.6310 S   0  0  0  0  0  0  0  0  0  0  0  0
    6.7702    0.2098    1.4530 H   0  0  0  0  0  0  0  0  0  0  0  0
    5.1612    0.7470    1.0345 H   0  0  0  0  0  0  0  0  0  0  0  0
    5.3930   -0.8101    1.7934 H   0  0  0  0  0  0  0  0  0  0  0  0
    3.2844    0.6310    2.5185 H   0  0  0  0  0  0  0  0  0  0  0  0
    1.3506    2.7604    1.9796 H   0  0  0  0  0  0  0  0  0  0  0  0
    0.9510    1.1882    2.6298 H   0  0  0  0  0  0  0  0  0  0  0  0
    1.8992    1.7371   -0.1683 H   0  0  0  0  0  0  0  0  0  0  0  0
    1.5601   -0.7248    1.4210 H   0  0  0  0  0  0  0  0  0  0  0  0
    2.4811   -0.4780   -0.0435 H   0  0  0  0  0  0  0  0  0  0  0  0
    0.2618   -1.9369   -0.1444 H   0  0  0  0  0  0  0  0  0  0  0  0
    0.5792   -0.7964   -1.4300 H   0  0  0  0  0  0  0  0  0  0  0  0
   -1.1996   -0.3812    1.0221 H   0  0  0  0  0  0  0  0  0  0  0  0
   -1.8797    0.5545   -1.6533 H   0  0  0  0  0  0  0  0  0  0  0  0
   -3.3670   -0.7990   -2.8915 H   0  0  0  0  0  0  0  0  0  0  0  0
   -4.5302   -0.0629   -1.8148 H   0  0  0  0  0  0  0  0  0  0  0  0
   -5.4432   -2.1591   -1.2279 H   0  0  0  0  0  0  0  0  0  0  0  0
   -4.1345   -3.0184   -2.0045 H   0  0  0  0  0  0  0  0  0  0  0  0
   -4.8840   -2.1966   -4.1525 H   0  0  0  0  0  0  0  0  0  0  0  0
   -6.2059   -1.3674   -3.3656 H   0  0  0  0  0  0  0  0  0  0  0  0
   -8.3149   -2.9459   -5.0269 H   0  0  0  0  0  0  0  0  0  0  0  0
   -6.9423   -3.4521   -5.8877 H   0  0  0  0  0  0  0  0  0  0  0  0
   -0.7241    1.9164    0.9651 H   0  0  0  0  0  0  0  0  0  0  0  0
   -0.3397    1.8891   -0.7395 H   0  0  0  0  0  0  0  0  0  0  0  0
    6.1832    4.0879    2.3752 H   0  0  0  0  0  0  0  0  0  0  0  0
    7.3317    2.7968    2.6363 H   0  0  0  0  0  0  0  0  0  0  0  0
    6.3433    2.3893    4.9688 H   0  0  0  0  0  0  0  0  0  0  0  0
    5.1948    3.6804    4.7077 H   0  0  0  0  0  0  0  0  0  0  0  0
  1 16  1  0  0  0  0
  1 25  1  0  0  0  0
  1 26  1  0  0  0  0
  1 27  1  0  0  0  0
  2 16  1  0  0  0  0
  2  3  1  0  0  0  0
  2 14  1  0  0  0  0
  2 15  1  0  0  0  0
  3 21  1  0  0  0  0
  3 17  2  0  0  0  0
  4 21  1  0  0  0  0
  4  5  1  0  0  0  0
  4 29  1  0  0  0  0
  4 30  1  0  0  0  0
  5  6  1  0  0  0  0
  5 13  1  0  0  0  0
  5 31  1  6  0  0  0
  6  7  1  0  0  0  0
  6 32  1  0  0  0  0
  6 33  1  0  0  0  0
  7  8  1  0  0  0  0
  7 34  1  0  0  0  0
  7 35  1  0  0  0  0
  8 22  1  0  0  0  0
  8 13  1  0  0  0  0
  8 36  1  1  0  0  0
  9 22  1  0  0  0  0
  9 10  1  0  0  0  0
  9 18  2  0  0  0  0
 10 11  1  0  0  0  0
 10 38  1  0  0  0  0
 10 39  1  0  0  0  0
 11 12  1  0  0  0  0
 11 40  1  0  0  0  0
 11 41  1  0  0  0  0
 12 42  1  0  0  0  0
 12 43  1  0  0  0  0
 13 46  1  0  0  0  0
 13 47  1  0  0  0  0
 14 15  1  0  0  0  0
 14 48  1  0  0  0  0
 14 49  1  0  0  0  0
 15 50  1  0  0  0  0
 15 51  1  0  0  0  0
 21 28  1  0  0  0  0
 22 37  1  0  0  0  0
 23 44  1  0  0  0  0
 23 45  1  0  0  0  0
 24 12  1  0  0  0  0
 24 23  1  0  0  0  0
 24 19  2  0  0  0  0
 24 20  2  0  0  0  0
M  END
>  <score>
0.44958347082138062

$$$$
PV-003640140368
 OpenBabel08202115463D

 46 48  0  0  0  0  0  0  0  0999 V2000
   -6.9253   -4.1220   -2.4362 C   0  0  0  0  0  0  0  0  0  0  0  0
   -5.4990   -4.0270   -2.0039 C   0  0  0  0  0  0  0  0  0  0  0  0
   -3.8197   -2.3745   -1.8840 C   0  0  0  0  0  0  0  0  0  0  0  0
   -3.4460   -0.9513   -2.0585 C   0  0  0  0  0  0  0  0  0  0  0  0
   -4.3028   -0.0228   -2.6233 C   0  0  0  0  0  0  0  0  0  0  0  0
   -2.8482    1.6888   -2.1994 C   0  0  0  0  0  0  0  0  0  0  0  0
   -1.9359    0.8310   -1.6151 C   0  0  0  0  0  0  0  0  0  0  0  0
   -0.6771    1.4136   -1.0952 C   0  0  0  0  0  0  0  0  0  0  0  0
    0.0438    0.7173   -0.1409 C   0  0  0  0  0  0  0  0  0  0  0  0
    1.2141    1.2699    0.3414 C   0  0  0  0  0  0  0  0  0  0  0  0
    3.0315    1.1171    1.8801 C   0  0  0  0  0  0  0  0  0  0  0  0
    3.1758    0.5908    3.3411 C   0  0  0  0  0  0  0  0  0  0  0  0
    4.4905    1.0562    3.9680 C   0  0  0  0  0  0  0  0  0  0  0  0
    5.7028    0.6794    3.1243 C   0  0  0  0  0  0  0  0  0  0  0  0
    5.5731    1.1917    1.7091 C   0  0  0  0  0  0  0  0  0  0  0  0
    4.2788    0.7307    1.0711 C   0  0  0  0  0  0  0  0  0  0  0  0
    1.6196    2.4978   -0.1480 C   0  0  0  0  0  0  0  0  0  0  0  0
    0.8408    3.1227   -1.1032 C   0  0  0  0  0  0  0  0  0  0  0  0
   -2.2399   -0.5159   -1.5450 C   0  0  0  0  0  0  0  0  0  0  0  0
   -5.0562   -2.6838   -2.2534 O   0  0  0  0  0  0  0  0  0  0  0  0
   -3.0609   -3.1967   -1.4395 O   0  0  0  0  0  0  0  0  0  0  0  0
    1.8640    0.5310    1.2717 O   0  0  0  0  0  0  0  0  0  0  0  0
   -4.0190    1.2851   -2.7019 N   0  0  0  0  0  0  0  0  0  0  0  0
   -0.2936    2.6026   -1.5817 N   0  0  0  0  0  0  0  0  0  0  0  0
   -6.8495   -4.1876   -3.5015 H   0  0  0  0  0  0  0  0  0  0  0  0
   -7.4748   -3.2521   -2.1426 H   0  0  0  0  0  0  0  0  0  0  0  0
   -7.3931   -4.9941   -2.0296 H   0  0  0  0  0  0  0  0  0  0  0  0
   -4.9022   -4.7172   -2.5626 H   0  0  0  0  0  0  0  0  0  0  0  0
   -5.4191   -4.2491   -0.9602 H   0  0  0  0  0  0  0  0  0  0  0  0
   -5.2109   -0.3558   -3.0054 H   0  0  0  0  0  0  0  0  0  0  0  0
   -2.6117    2.7003   -2.2509 H   0  0  0  0  0  0  0  0  0  0  0  0
   -0.2894   -0.2046    0.2065 H   0  0  0  0  0  0  0  0  0  0  0  0
    2.9308    2.1822    1.8932 H   0  0  0  0  0  0  0  0  0  0  0  0
    2.3599    0.9593    3.9271 H   0  0  0  0  0  0  0  0  0  0  0  0
    3.1534   -0.4789    3.3306 H   0  0  0  0  0  0  0  0  0  0  0  0
    4.5898    0.6042    4.9328 H   0  0  0  0  0  0  0  0  0  0  0  0
    4.4629    2.1206    4.0734 H   0  0  0  0  0  0  0  0  0  0  0  0
    6.5800    1.1021    3.5679 H   0  0  0  0  0  0  0  0  0  0  0  0
    5.7924   -0.3866    3.1011 H   0  0  0  0  0  0  0  0  0  0  0  0
    5.5926    2.2615    1.7230 H   0  0  0  0  0  0  0  0  0  0  0  0
    6.3957    0.8271    1.1301 H   0  0  0  0  0  0  0  0  0  0  0  0
    4.3067   -0.3349    0.9784 H   0  0  0  0  0  0  0  0  0  0  0  0
    4.2033    1.1719    0.0993 H   0  0  0  0  0  0  0  0  0  0  0  0
    2.4943    2.9428    0.1964 H   0  0  0  0  0  0  0  0  0  0  0  0
    1.1533    4.0449   -1.4686 H   0  0  0  0  0  0  0  0  0  0  0  0
   -1.5735   -1.1881   -1.1141 H   0  0  0  0  0  0  0  0  0  0  0  0
  1  2  1  0  0  0  0
  1 25  1  0  0  0  0
  1 26  1  0  0  0  0
  1 27  1  0  0  0  0
  2 20  1  0  0  0  0
  2 28  1  0  0  0  0
  2 29  1  0  0  0  0
  3 20  1  0  0  0  0
  3  4  1  0  0  0  0
  3 21  2  0  0  0  0
  4 19  1  0  0  0  0
  4  5  2  0  0  0  0
  5 23  1  0  0  0  0
  5 30  1  0  0  0  0
  6  7  1  0  0  0  0
  6 31  1  0  0  0  0
  6 23  2  0  0  0  0
  7  8  1  0  0  0  0
  7 19  2  0  0  0  0
  8 24  1  0  0  0  0
  8  9  2  0  0  0  0
  9 10  1  0  0  0  0
  9 32  1  0  0  0  0
 10 22  1  0  0  0  0
 10 17  2  0  0  0  0
 11 22  1  0  0  0  0
 11 12  1  0  0  0  0
 11 16  1  0  0  0  0
 11 33  1  0  0  0  0
 12 13  1  0  0  0  0
 12 34  1  0  0  0  0
 12 35  1  0  0  0  0
 13 14  1  0  0  0  0
 13 36  1  0  0  0  0
 13 37  1  0  0  0  0
 14 15  1  0  0  0  0
 14 38  1  0  0  0  0
 14 39  1  0  0  0  0
 15 16  1  0  0  0  0
 15 40  1  0  0  0  0
 15 41  1  0  0  0  0
 16 42  1  0  0  0  0
 16 43  1  0  0  0  0
 17 18  1  0  0  0  0
 17 44  1  0  0  0  0
 18 45  1  0  0  0  0
 18 24  2  0  0  0  0
 19 46  1  0  0  0  0
M  END
>  <score>
0.44969135522842407

$$$$
PV-003966356028
 OpenBabel08202115463D

 45 46  0  0  0  0  0  0  0  0999 V2000
    0.4222   -0.2499   -2.1764 O   0  0  0  0  0  0  0  0  0  0  0  0
    6.1794   -0.0283    4.2190 O   0  0  0  0  0  0  0  0  0  0  0  0
    5.6084    2.1371    4.9026 O   0  0  0  0  0  0  0  0  0  0  0  0
   -2.4173   -2.1494    0.2898 O   0  0  0  0  0  0  0  0  0  0  0  0
   -6.2002   -3.8456   -2.9257 O   0  0  0  0  0  0  0  0  0  0  0  0
   -0.4186    0.4644   -1.6368 C   0  0  0  0  0  0  0  0  0  0  0  0
   -0.0772    1.8684   -1.2021 C   0  0  0  0  0  0  0  0  0  0  0  0
    0.5640    1.9650    0.1591 C   0  0  0  0  0  0  0  0  0  0  0  0
    0.0567    2.4811    1.3123 C   0  0  0  0  0  0  0  0  0  0  0  0
    2.3013    1.5863    1.4458 C   0  0  0  0  0  0  0  0  0  0  0  0
    3.6725    1.1262    1.8651 C   0  0  1  0  0  0  0  0  0  0  0  0
    4.7008    2.2221    1.5836 C   0  0  0  0  0  0  0  0  0  0  0  0
    6.0006    1.8096    2.2744 C   0  0  0  0  0  0  0  0  0  0  0  0
    3.6963    0.8565    3.3690 C   0  0  0  0  0  0  0  0  0  0  0  0
   -2.1320   -1.2758   -1.9167 C   0  0  1  0  0  0  0  0  0  0  0  0
   -1.7449   -2.3540   -0.9458 C   0  0  0  0  0  0  0  0  0  0  0  0
   -3.6425   -1.2096   -2.0816 C   0  0  0  0  0  0  0  0  0  0  0  0
   -4.2552   -2.5196   -2.5112 C   0  0  0  0  0  0  0  0  0  0  0  0
   -5.7555   -2.5437   -2.5678 C   0  0  0  0  0  0  0  0  0  0  0  0
    1.2179    2.3344    2.5656 S   0  0  0  0  0  0  0  0  0  0  0  0
    5.4838    1.1735    3.8521 S   0  0  0  0  0  0  0  0  0  0  0  0
    1.8351    1.4598    0.2352 N   0  0  0  0  0  0  0  0  0  0  0  0
   -1.6604    0.0234   -1.4171 N   0  0  0  0  0  0  0  0  0  0  0  0
   -0.9803    2.4420   -1.1870 H   0  0  0  0  0  0  0  0  0  0  0  0
    0.5986    2.2849   -1.9196 H   0  0  0  0  0  0  0  0  0  0  0  0
   -0.8895    2.8999    1.4170 H   0  0  0  0  0  0  0  0  0  0  0  0
    3.9300    0.2364    1.3295 H   0  0  0  0  0  0  0  0  0  0  0  0
    4.3576    3.1564    1.9761 H   0  0  0  0  0  0  0  0  0  0  0  0
    4.8592    2.3141    0.5294 H   0  0  0  0  0  0  0  0  0  0  0  0
    6.5058    1.0543    1.7094 H   0  0  0  0  0  0  0  0  0  0  0  0
    6.6462    2.6535    2.4001 H   0  0  0  0  0  0  0  0  0  0  0  0
    3.0378    1.5227    3.8861 H   0  0  0  0  0  0  0  0  0  0  0  0
    3.4183   -0.1551    3.5792 H   0  0  0  0  0  0  0  0  0  0  0  0
   -2.2784    0.5858   -0.9050 H   0  0  0  0  0  0  0  0  0  0  0  0
   -1.6850   -1.4824   -2.8666 H   0  0  0  0  0  0  0  0  0  0  0  0
   -0.6875   -2.3244   -0.7844 H   0  0  0  0  0  0  0  0  0  0  0  0
   -2.0186   -3.3078   -1.3459 H   0  0  0  0  0  0  0  0  0  0  0  0
   -3.2099   -1.6287    0.1409 H   0  0  0  0  0  0  0  0  0  0  0  0
   -3.8711   -0.4699   -2.8202 H   0  0  0  0  0  0  0  0  0  0  0  0
   -4.0739   -0.9244   -1.1449 H   0  0  0  0  0  0  0  0  0  0  0  0
   -3.9393   -3.2733   -1.8205 H   0  0  0  0  0  0  0  0  0  0  0  0
   -3.8847   -2.7521   -3.4877 H   0  0  0  0  0  0  0  0  0  0  0  0
   -6.0953   -1.8388   -3.2976 H   0  0  0  0  0  0  0  0  0  0  0  0
   -6.1519   -2.2838   -1.6085 H   0  0  0  0  0  0  0  0  0  0  0  0
   -7.0234   -4.0393   -2.4713 H   0  0  0  0  0  0  0  0  0  0  0  0
  4 38  1  0  0  0  0
  5 45  1  0  0  0  0
  6  7  1  0  0  0  0
  6 23  1  0  0  0  0
  6  1  2  0  0  0  0
  7  8  1  0  0  0  0
  7 24  1  0  0  0  0
  7 25  1  0  0  0  0
  8 22  1  0  0  0  0
  8  9  2  0  0  0  0
  9 20  1  0  0  0  0
  9 26  1  0  0  0  0
 10 20  1  0  0  0  0
 10 11  1  0  0  0  0
 10 22  2  0  0  0  0
 11 12  1  0  0  0  0
 11 14  1  0  0  0  0
 11 27  1  6  0  0  0
 12 13  1  0  0  0  0
 12 28  1  0  0  0  0
 12 29  1  0  0  0  0
 13 30  1  0  0  0  0
 13 31  1  0  0  0  0
 14 32  1  0  0  0  0
 14 33  1  0  0  0  0
 15 23  1  0  0  0  0
 15 16  1  0  0  0  0
 15 17  1  0  0  0  0
 15 35  1  6  0  0  0
 16  4  1  0  0  0  0
 16 36  1  0  0  0  0
 16 37  1  0  0  0  0
 17 18  1  0  0  0  0
 17 39  1  0  0  0  0
 17 40  1  0  0  0  0
 18 19  1  0  0  0  0
 18 41  1  0  0  0  0
 18 42  1  0  0  0  0
 19  5  1  0  0  0  0
 19 43  1  0  0  0  0
 19 44  1  0  0  0  0
 21 13  1  0  0  0  0
 21 14  1  0  0  0  0
 21  2  2  0  0  0  0
 21  3  2  0  0  0  0
 23 34  1  0  0  0  0
M  END
>  <score>
0.44970059394836426

$$$$
Z4562827844
 OpenBabel08202115463D

 44 45  0  0  0  0  0  0  0  0999 V2000
   -6.7230   -2.4163   -3.0751 C   0  0  0  0  0  0  0  0  0  0  0  0
   -5.4132   -3.1295   -3.1522 C   0  0  0  0  0  0  0  0  0  0  0  0
   -3.1895   -2.8181   -2.4599 C   0  0  0  0  0  0  0  0  0  0  0  0
   -2.2137   -1.8685   -1.8821 C   0  0  0  0  0  0  0  0  0  0  0  0
   -1.4362   -0.1367   -1.0407 C   0  0  0  0  0  0  0  0  0  0  0  0
   -1.2629    1.2769   -0.5558 C   0  0  1  0  0  0  0  0  0  0  0  0
   -2.5085    2.1554   -0.6228 C   0  0  0  0  0  0  0  0  0  0  0  0
    0.5186    1.1043    1.0340 C   0  0  0  0  0  0  0  0  0  0  0  0
    1.4958    1.0989    0.0566 C   0  0  0  0  0  0  0  0  0  0  0  0
    2.8348    1.0989    0.4154 C   0  0  0  0  0  0  0  0  0  0  0  0
    3.1926    1.0989    1.7505 C   0  0  0  0  0  0  0  0  0  0  0  0
    4.6990    1.0928    2.1549 C   0  0  0  0  0  0  0  0  0  0  0  0
    5.1050   -0.2210    2.8063 C   0  0  0  0  0  0  0  0  0  0  0  0
    5.1026    2.3170    2.9818 C   0  0  0  0  0  0  0  0  0  0  0  0
    2.2123    1.1043    2.7306 C   0  0  0  0  0  0  0  0  0  0  0  0
    0.8773    1.1043    2.3730 C   0  0  0  0  0  0  0  0  0  0  0  0
   -4.4293   -2.3161   -2.4710 O   0  0  0  0  0  0  0  0  0  0  0  0
   -2.9129   -3.9142   -2.8740 O   0  0  0  0  0  0  0  0  0  0  0  0
   -0.8303    1.1099    0.8034 O   0  0  0  0  0  0  0  0  0  0  0  0
    5.4602    1.1830    0.9362 O   0  0  0  0  0  0  0  0  0  0  0  0
   -0.9382   -2.1682   -1.7211 N   0  0  0  0  0  0  0  0  0  0  0  0
   -0.4535   -1.0248   -1.1680 N   0  0  0  0  0  0  0  0  0  0  0  0
   -2.5751   -0.6354   -1.4850 N   0  0  0  0  0  0  0  0  0  0  0  0
   -0.0751    1.1043    3.3253 F   0  0  0  0  0  0  0  0  0  0  0  0
   -7.3292   -3.2230   -3.4310 H   0  0  0  0  0  0  0  0  0  0  0  0
   -6.7620   -1.5607   -3.7163 H   0  0  0  0  0  0  0  0  0  0  0  0
   -6.9731   -2.1257   -2.0761 H   0  0  0  0  0  0  0  0  0  0  0  0
   -5.1305   -3.2626   -4.1756 H   0  0  0  0  0  0  0  0  0  0  0  0
   -5.4897   -4.0844   -2.6757 H   0  0  0  0  0  0  0  0  0  0  0  0
    0.4783   -0.8770   -0.9031 H   0  0  0  0  0  0  0  0  0  0  0  0
   -0.4836    1.7445   -1.1206 H   0  0  0  0  0  0  0  0  0  0  0  0
   -3.2211    1.7932    0.0885 H   0  0  0  0  0  0  0  0  0  0  0  0
   -2.9275    2.1120   -1.6064 H   0  0  0  0  0  0  0  0  0  0  0  0
   -2.2489    3.1669   -0.3894 H   0  0  0  0  0  0  0  0  0  0  0  0
    1.2266    1.0949   -0.9479 H   0  0  0  0  0  0  0  0  0  0  0  0
    3.5701    1.0989   -0.3199 H   0  0  0  0  0  0  0  0  0  0  0  0
    4.9049   -1.0295    2.1345 H   0  0  0  0  0  0  0  0  0  0  0  0
    4.5455   -0.3597    3.7077 H   0  0  0  0  0  0  0  0  0  0  0  0
    6.1501   -0.1976    3.0345 H   0  0  0  0  0  0  0  0  0  0  0  0
    4.7030    3.2008    2.5299 H   0  0  0  0  0  0  0  0  0  0  0  0
    6.1697    2.3866    3.0181 H   0  0  0  0  0  0  0  0  0  0  0  0
    4.7171    2.2190    3.9751 H   0  0  0  0  0  0  0  0  0  0  0  0
    5.0821    0.5952    0.2780 H   0  0  0  0  0  0  0  0  0  0  0  0
    2.4815    1.1084    3.7351 H   0  0  0  0  0  0  0  0  0  0  0  0
  1  2  1  0  0  0  0
  1 25  1  0  0  0  0
  1 26  1  0  0  0  0
  1 27  1  0  0  0  0
  2 17  1  0  0  0  0
  2 28  1  0  0  0  0
  2 29  1  0  0  0  0
  3 17  1  0  0  0  0
  3  4  1  0  0  0  0
  3 18  2  0  0  0  0
  4 23  1  0  0  0  0
  4 21  2  0  0  0  0
  5 22  1  0  0  0  0
  5  6  1  0  0  0  0
  5 23  2  0  0  0  0
  6  7  1  0  0  0  0
  6 19  1  0  0  0  0
  6 31  1  6  0  0  0
  7 32  1  0  0  0  0
  7 33  1  0  0  0  0
  7 34  1  0  0  0  0
  8 19  1  0  0  0  0
  8 16  1  0  0  0  0
  8  9  2  0  0  0  0
  9 10  1  0  0  0  0
  9 35  1  0  0  0  0
 10 36  1  0  0  0  0
 10 11  2  0  0  0  0
 11 12  1  0  0  0  0
 11 15  1  0  0  0  0
 12 13  1  0  0  0  0
 12 14  1  0  0  0  0
 12 20  1  0  0  0  0
 13 37  1  0  0  0  0
 13 38  1  0  0  0  0
 13 39  1  0  0  0  0
 14 40  1  0  0  0  0
 14 41  1  0  0  0  0
 14 42  1  0  0  0  0
 15 44  1  0  0  0  0
 15 16  2  0  0  0  0
 16 24  1  0  0  0  0
 20 43  1  0  0  0  0
 21 22  1  0  0  0  0
 22 30  1  0  0  0  0
M  END
>  <score>
0.4497370719909668

$$$$
Z4025237175
 OpenBabel08202115463D

 41 44  0  0  0  0  0  0  0  0999 V2000
    4.8664   -1.2806    3.2801 O   0  0  0  0  0  0  0  0  0  0  0  0
    1.2118    0.4947    0.2560 O   0  0  0  0  0  0  0  0  0  0  0  0
    4.7955   -0.0885    3.0304 C   0  0  0  0  0  0  0  0  0  0  0  0
    5.0618    1.0471    3.9845 C   0  0  0  0  0  0  0  0  0  0  0  0
    5.3366    2.2651    3.1056 C   0  0  0  0  0  0  0  0  0  0  0  0
    5.2561    1.7016    1.6900 C   0  0  0  0  0  0  0  0  0  0  0  0
    3.4871   -0.0322    0.8514 C   0  0  0  0  0  0  0  0  0  0  0  0
    2.4474    0.9874    0.5683 C   0  0  0  0  0  0  0  0  0  0  0  0
    0.4876    1.6309    0.0474 C   0  0  0  0  0  0  0  0  0  0  0  0
   -0.9320    1.4505   -0.3162 C   0  0  0  0  0  0  0  0  0  0  0  0
   -3.3844   -0.6570   -1.6145 C   0  0  0  0  0  0  0  0  0  0  0  0
   -3.8667   -1.6591   -0.7939 C   0  0  0  0  0  0  0  0  0  0  0  0
   -4.5805   -2.7162   -1.3367 C   0  0  0  0  0  0  0  0  0  0  0  0
   -4.8053   -2.7707   -2.6994 C   0  0  0  0  0  0  0  0  0  0  0  0
   -5.5857   -3.9505   -3.2406 C   0  0  0  0  0  0  0  0  0  0  0  0
   -4.3217   -1.7657   -3.5225 C   0  0  0  0  0  0  0  0  0  0  0  0
   -3.6100   -0.7118   -2.9811 C   0  0  0  0  0  0  0  0  0  0  0  0
   -3.0987    1.6537   -0.6783 C   0  0  0  0  0  0  0  0  0  0  0  0
   -2.0094    2.3386   -0.1947 C   0  0  0  0  0  0  0  0  0  0  0  0
    4.4553    0.4816    1.8170 N   0  0  0  0  0  0  0  0  0  0  0  0
    2.4796    2.2749    0.5584 N   0  0  0  0  0  0  0  0  0  0  0  0
    1.1871    2.7006    0.2080 N   0  0  0  0  0  0  0  0  0  0  0  0
   -1.3227    0.2883   -0.8475 N   0  0  0  0  0  0  0  0  0  0  0  0
   -2.6565    0.4308   -1.0566 N   0  0  0  0  0  0  0  0  0  0  0  0
   -4.7931   -4.7916   -3.9071 F   0  0  0  0  0  0  0  0  0  0  0  0
   -6.5574   -3.5674   -4.0702 F   0  0  0  0  0  0  0  0  0  0  0  0
   -6.1566   -4.6427   -2.2539 F   0  0  0  0  0  0  0  0  0  0  0  0
    5.9118    0.8289    4.5968 H   0  0  0  0  0  0  0  0  0  0  0  0
    4.2085    1.2202    4.6065 H   0  0  0  0  0  0  0  0  0  0  0  0
    6.3078    2.6687    3.3027 H   0  0  0  0  0  0  0  0  0  0  0  0
    4.5971    3.0231    3.2590 H   0  0  0  0  0  0  0  0  0  0  0  0
    4.7787    2.3988    1.0337 H   0  0  0  0  0  0  0  0  0  0  0  0
    6.2335    1.4736    1.3192 H   0  0  0  0  0  0  0  0  0  0  0  0
    3.0215   -0.9086    1.2515 H   0  0  0  0  0  0  0  0  0  0  0  0
    3.9939   -0.2804   -0.0577 H   0  0  0  0  0  0  0  0  0  0  0  0
   -3.6940   -1.6202    0.2309 H   0  0  0  0  0  0  0  0  0  0  0  0
   -4.9468   -3.4682   -0.7188 H   0  0  0  0  0  0  0  0  0  0  0  0
   -4.4943   -1.8046   -4.5473 H   0  0  0  0  0  0  0  0  0  0  0  0
   -3.2437    0.0402   -3.5991 H   0  0  0  0  0  0  0  0  0  0  0  0
   -4.0749    2.0067   -0.7415 H   0  0  0  0  0  0  0  0  0  0  0  0
   -1.9891    3.3082    0.1808 H   0  0  0  0  0  0  0  0  0  0  0  0
  3  4  1  0  0  0  0
  3 20  1  0  0  0  0
  3  1  2  0  0  0  0
  4  5  1  0  0  0  0
  4 28  1  0  0  0  0
  4 29  1  0  0  0  0
  5  6  1  0  0  0  0
  5 30  1  0  0  0  0
  5 31  1  0  0  0  0
  6 20  1  0  0  0  0
  6 32  1  0  0  0  0
  6 33  1  0  0  0  0
  7 20  1  0  0  0  0
  7  8  1  0  0  0  0
  7 34  1  0  0  0  0
  7 35  1  0  0  0  0
  8  2  1  0  0  0  0
  8 21  2  0  0  0  0
  9 10  1  0  0  0  0
  9  2  1  0  0  0  0
  9 22  2  0  0  0  0
 10 19  1  0  0  0  0
 10 23  2  0  0  0  0
 11 24  1  0  0  0  0
 11 17  1  0  0  0  0
 11 12  2  0  0  0  0
 12 13  1  0  0  0  0
 12 36  1  0  0  0  0
 13 37  1  0  0  0  0
 13 14  2  0  0  0  0
 14 15  1  0  0  0  0
 14 16  1  0  0  0  0
 15 25  1  0  0  0  0
 15 26  1  0  0  0  0
 15 27  1  0  0  0  0
 16 38  1  0  0  0  0
 16 17  2  0  0  0  0
 17 39  1  0  0  0  0
 18 24  1  0  0  0  0
 18 40  1  0  0  0  0
 18 19  2  0  0  0  0
 19 41  1  0  0  0  0
 21 22  1  0  0  0  0
 23 24  1  0  0  0  0
M  END
>  <score>
0.44980043172836304

$$$$
Z4241871112
 OpenBabel08202115463D

 47 48  0  0  0  0  0  0  0  0999 V2000
   -6.1330   -2.1144   -4.5764 C   0  0  0  0  0  0  0  0  0  0  0  0
   -6.0044   -2.8766   -3.2118 C   0  0  0  0  0  0  0  0  0  0  0  0
   -4.7380   -2.4950   -2.4823 C   0  0  0  0  0  0  0  0  0  0  0  0
   -4.3807   -1.1686   -2.3382 C   0  0  0  0  0  0  0  0  0  0  0  0
   -3.2127   -0.8651   -1.6634 C   0  0  0  0  0  0  0  0  0  0  0  0
   -2.7646    0.5756   -1.5914 C   0  0  0  0  0  0  0  0  0  0  0  0
   -0.6659    0.7118   -0.3308 C   0  0  0  0  0  0  0  0  0  0  0  0
    0.8154    0.9587   -0.3989 C   0  0  0  0  0  0  0  0  0  0  0  0
    3.2570    1.5102    0.8517 C   0  0  0  0  0  0  0  0  0  0  0  0
    5.1404    1.8178   -0.1040 C   0  0  0  0  0  0  0  0  0  0  0  0
    5.4018    1.6903    1.2269 C   0  0  0  0  0  0  0  0  0  0  0  0
    3.9381    1.2906    3.2851 C   0  0  0  0  0  0  0  0  0  0  0  0
    5.2999    1.2126    3.9559 C   0  0  0  0  0  0  0  0  0  0  0  0
    3.2063   -0.0268    3.4832 C   0  0  0  0  0  0  0  0  0  0  0  0
    3.1355    2.4331    3.8859 C   0  0  0  0  0  0  0  0  0  0  0  0
   -2.4502   -1.8998   -1.1559 C   0  0  0  0  0  0  0  0  0  0  0  0
   -3.9135   -3.4683   -1.9455 C   0  0  0  0  0  0  0  0  0  0  0  0
   -5.9789   -4.1923   -3.4633 F   0  0  0  0  0  0  0  0  0  0  0  0
   -7.0832   -2.5954   -2.4701 F   0  0  0  0  0  0  0  0  0  0  0  0
   -1.3174    0.7655   -1.4960 N   0  0  0  0  0  0  0  0  0  0  0  0
    3.7915    1.7075   -0.3393 N   0  0  0  0  0  0  0  0  0  0  0  0
    4.1862    1.4906    1.8301 N   0  0  0  0  0  0  0  0  0  0  0  0
   -2.7809   -3.1883   -1.2853 N   0  0  0  0  0  0  0  0  0  0  0  0
   -1.2254    0.4767    0.7394 O   0  0  0  0  0  0  0  0  0  0  0  0
    1.5677    1.2923    1.2044 S   0  0  0  0  0  0  0  0  0  0  0  0
   -6.3579   -1.0849   -4.3907 H   0  0  0  0  0  0  0  0  0  0  0  0
   -6.9187   -2.5519   -5.1563 H   0  0  0  0  0  0  0  0  0  0  0  0
   -5.2103   -2.1865   -5.1133 H   0  0  0  0  0  0  0  0  0  0  0  0
   -4.9785   -0.4129   -2.7296 H   0  0  0  0  0  0  0  0  0  0  0  0
   -3.2159    1.0214   -0.7298 H   0  0  0  0  0  0  0  0  0  0  0  0
   -3.1079    1.0749   -2.4733 H   0  0  0  0  0  0  0  0  0  0  0  0
   -0.8080    0.9381   -2.3152 H   0  0  0  0  0  0  0  0  0  0  0  0
    0.9885    1.8013   -1.0352 H   0  0  0  0  0  0  0  0  0  0  0  0
    1.2834    0.0925   -0.8180 H   0  0  0  0  0  0  0  0  0  0  0  0
    5.8601    1.9763   -0.8378 H   0  0  0  0  0  0  0  0  0  0  0  0
    6.3317    1.7351    1.6903 H   0  0  0  0  0  0  0  0  0  0  0  0
    5.8660    2.0831    3.6980 H   0  0  0  0  0  0  0  0  0  0  0  0
    5.8154    0.3372    3.6199 H   0  0  0  0  0  0  0  0  0  0  0  0
    5.1745    1.1679    5.0176 H   0  0  0  0  0  0  0  0  0  0  0  0
    3.2355   -0.2996    4.5174 H   0  0  0  0  0  0  0  0  0  0  0  0
    3.6798   -0.7888    2.9001 H   0  0  0  0  0  0  0  0  0  0  0  0
    2.1883    0.0806    3.1715 H   0  0  0  0  0  0  0  0  0  0  0  0
    2.1480    2.4312    3.4738 H   0  0  0  0  0  0  0  0  0  0  0  0
    3.6145    3.3627    3.6595 H   0  0  0  0  0  0  0  0  0  0  0  0
    3.0791    2.3095    4.9472 H   0  0  0  0  0  0  0  0  0  0  0  0
   -1.5743   -1.6639   -0.6473 H   0  0  0  0  0  0  0  0  0  0  0  0
   -4.1859   -4.4655   -2.0599 H   0  0  0  0  0  0  0  0  0  0  0  0
  1  2  1  0  0  0  0
  1 26  1  0  0  0  0
  1 27  1  0  0  0  0
  1 28  1  0  0  0  0
  2 18  1  0  0  0  0
  2 19  1  0  0  0  0
  2  3  1  0  0  0  0
  3 17  1  0  0  0  0
  3  4  2  0  0  0  0
  4  5  1  0  0  0  0
  4 29  1  0  0  0  0
  5  6  1  0  0  0  0
  5 16  2  0  0  0  0
  6 20  1  0  0  0  0
  6 30  1  0  0  0  0
  6 31  1  0  0  0  0
  7 20  1  0  0  0  0
  7  8  1  0  0  0  0
  7 24  2  0  0  0  0
  8 25  1  0  0  0  0
  8 33  1  0  0  0  0
  8 34  1  0  0  0  0
  9 25  1  0  0  0  0
  9 22  1  0  0  0  0
  9 21  2  0  0  0  0
 10 21  1  0  0  0  0
 10 35  1  0  0  0  0
 10 11  2  0  0  0  0
 11 22  1  0  0  0  0
 11 36  1  0  0  0  0
 12 22  1  0  0  0  0
 12 13  1  0  0  0  0
 12 14  1  0  0  0  0
 12 15  1  0  0  0  0
 13 37  1  0  0  0  0
 13 38  1  0  0  0  0
 13 39  1  0  0  0  0
 14 40  1  0  0  0  0
 14 41  1  0  0  0  0
 14 42  1  0  0  0  0
 15 43  1  0  0  0  0
 15 44  1  0  0  0  0
 15 45  1  0  0  0  0
 16 23  1  0  0  0  0
 16 46  1  0  0  0  0
 17 47  1  0  0  0  0
 17 23  2  0  0  0  0
 20 32  1  0  0  0  0
M  END
>  <score>
0.44980865716934204

$$$$
Z4027521299
 OpenBabel08202115463D

 45 48  0  0  0  0  0  0  0  0999 V2000
   -6.4408   -3.5637   -4.1157 C   0  0  0  0  0  0  0  0  0  0  0  0
   -5.2185   -1.8944   -2.9640 C   0  0  0  0  0  0  0  0  0  0  0  0
   -3.9966   -1.6349   -2.1677 C   0  0  0  0  0  0  0  0  0  0  0  0
   -3.4117   -2.6961   -1.4762 C   0  0  0  0  0  0  0  0  0  0  0  0
   -2.2800   -2.5245   -0.7114 C   0  0  0  0  0  0  0  0  0  0  0  0
   -1.7292   -1.2414   -0.6572 C   0  0  0  0  0  0  0  0  0  0  0  0
   -0.5417    0.4996   -0.2721 C   0  0  0  0  0  0  0  0  0  0  0  0
    1.5065    1.8691   -0.7258 C   0  0  0  0  0  0  0  0  0  0  0  0
    2.9373    1.4326   -0.3721 C   0  0  0  0  0  0  0  0  0  0  0  0
    4.4958    1.4779    1.5883 C   0  0  0  0  0  0  0  0  0  0  0  0
    4.2725    1.2256    3.1001 C   0  0  2  0  0  0  0  0  0  0  0  0
    4.8264   -0.1449    3.5050 C   0  0  0  0  0  0  0  0  0  0  0  0
    2.7309    1.2696    3.2911 C   0  0  0  0  0  0  0  0  0  0  0  0
    2.1606    2.0276    2.0800 C   0  0  2  0  0  0  0  0  0  0  0  0
    0.8218    1.4882    1.5942 C   0  0  0  0  0  0  0  0  0  0  0  0
   -2.3198   -0.1857   -1.3612 C   0  0  0  0  0  0  0  0  0  0  0  0
   -3.4692   -0.3615   -2.1281 C   0  0  0  0  0  0  0  0  0  0  0  0
   -5.3857   -3.1980   -3.2126 O   0  0  0  0  0  0  0  0  0  0  0  0
   -5.9777   -1.0422   -3.3472 O   0  0  0  0  0  0  0  0  0  0  0  0
   -0.6109   -0.7860    0.0286 N   0  0  0  0  0  0  0  0  0  0  0  0
    0.5302    1.2404    0.1691 N   0  0  0  0  0  0  0  0  0  0  0  0
    3.1723    1.7400    1.0263 N   0  0  2  0  0  0  0  0  0  0  0  0
   -1.5444    0.9206   -1.0925 N   0  0  0  0  0  0  0  0  0  0  0  0
   -7.3786   -3.2299   -3.7233 H   0  0  0  0  0  0  0  0  0  0  0  0
   -6.4602   -4.6275   -4.2291 H   0  0  0  0  0  0  0  0  0  0  0  0
   -6.2696   -3.1061   -5.0677 H   0  0  0  0  0  0  0  0  0  0  0  0
   -3.8417   -3.6409   -1.5402 H   0  0  0  0  0  0  0  0  0  0  0  0
   -1.8517   -3.3186   -0.1942 H   0  0  0  0  0  0  0  0  0  0  0  0
    1.2923    1.5825   -1.7342 H   0  0  0  0  0  0  0  0  0  0  0  0
    1.4321    2.9325   -0.6333 H   0  0  0  0  0  0  0  0  0  0  0  0
    3.6388    1.9623   -0.9822 H   0  0  0  0  0  0  0  0  0  0  0  0
    3.0455    0.3806   -0.5348 H   0  0  0  0  0  0  0  0  0  0  0  0
    5.1358    2.3229    1.4427 H   0  0  0  0  0  0  0  0  0  0  0  0
    4.9317    0.6161    1.1277 H   0  0  0  0  0  0  0  0  0  0  0  0
    4.7455    1.9883    3.6826 H   0  0  0  0  0  0  0  0  0  0  0  0
    5.6490   -0.3995    2.8698 H   0  0  0  0  0  0  0  0  0  0  0  0
    4.0582   -0.8831    3.4065 H   0  0  0  0  0  0  0  0  0  0  0  0
    5.1589   -0.1088    4.5214 H   0  0  0  0  0  0  0  0  0  0  0  0
    2.4043    0.5274    3.9891 H   0  0  0  0  0  0  0  0  0  0  0  0
    2.4073    2.2354    3.6191 H   0  0  0  0  0  0  0  0  0  0  0  0
    2.0778    3.0783    2.2662 H   0  0  0  0  0  0  0  0  0  0  0  0
    0.7774    2.5374    1.7991 H   0  0  0  0  0  0  0  0  0  0  0  0
    0.1113    0.9741    2.2073 H   0  0  0  0  0  0  0  0  0  0  0  0
   -1.6861    1.8312   -1.4259 H   0  0  0  0  0  0  0  0  0  0  0  0
   -3.9073    0.4277   -2.6447 H   0  0  0  0  0  0  0  0  0  0  0  0
  1 18  1  0  0  0  0
  1 24  1  0  0  0  0
  1 25  1  0  0  0  0
  1 26  1  0  0  0  0
  2 18  1  0  0  0  0
  2  3  1  0  0  0  0
  2 19  2  0  0  0  0
  3 17  1  0  0  0  0
  3  4  2  0  0  0  0
  4  5  1  0  0  0  0
  4 27  1  0  0  0  0
  5 28  1  0  0  0  0
  5  6  2  0  0  0  0
  6 20  1  0  0  0  0
  6 16  1  0  0  0  0
  7 21  1  0  0  0  0
  7 23  1  0  0  0  0
  7 20  2  0  0  0  0
  8 21  1  0  0  0  0
  8  9  1  0  0  0  0
  8 29  1  0  0  0  0
  8 30  1  0  0  0  0
  9 31  1  0  0  0  0
  9 32  1  0  0  0  0
 10 22  1  0  0  0  0
 10 11  1  0  0  0  0
 10 33  1  0  0  0  0
 10 34  1  0  0  0  0
 11 12  1  0  0  0  0
 11 13  1  0  0  0  0
 11 35  1  1  0  0  0
 12 36  1  0  0  0  0
 12 37  1  0  0  0  0
 12 38  1  0  0  0  0
 13 14  1  0  0  0  0
 13 39  1  0  0  0  0
 13 40  1  0  0  0  0
 14 22  1  0  0  0  0
 14 15  1  0  0  0  0
 14 41  1  1  0  0  0
 15 21  1  0  0  0  0
 15 42  1  0  0  0  0
 15 43  1  0  0  0  0
 16 23  1  0  0  0  0
 16 17  2  0  0  0  0
 17 45  1  0  0  0  0
 22  9  1  1  0  0  0
 23 44  1  0  0  0  0
M  END
>  <score>
0.44981181621551514

$$$$
Z3574427755
 OpenBabel08202115463D

 52 54  0  0  0  0  0  0  0  0999 V2000
   -2.0824   -1.9015   -2.6668 C   0  0  0  0  0  0  0  0  0  0  0  0
   -2.6646   -1.8320   -1.2507 C   0  0  1  0  0  0  0  0  0  0  0  0
   -1.7621   -1.0184   -0.3286 C   0  0  0  0  0  0  0  0  0  0  0  0
   -1.4583    1.4980   -0.2711 C   0  0  0  0  0  0  0  0  0  0  0  0
    0.5859    2.3521    0.7757 C   0  0  0  0  0  0  0  0  0  0  0  0
    1.8844    1.8437    1.3805 C   0  0  1  0  0  0  0  0  0  0  0  0
    2.8788    1.2486    0.3570 C   0  0  0  0  0  0  0  0  0  0  0  0
    4.0182    2.0370    1.0512 C   0  0  2  0  0  0  0  0  0  0  0  0
    4.8183    1.2357    2.0509 C   0  0  0  0  0  0  0  0  0  0  0  0
    4.1753    0.3755    2.9209 C   0  0  0  0  0  0  0  0  0  0  0  0
    4.9108   -0.3636    3.8344 C   0  0  0  0  0  0  0  0  0  0  0  0
    6.2862   -0.2362    3.8790 C   0  0  0  0  0  0  0  0  0  0  0  0
    6.9309    0.6266    3.0064 C   0  0  0  0  0  0  0  0  0  0  0  0
    6.1979    1.3636    2.0955 C   0  0  0  0  0  0  0  0  0  0  0  0
    2.9266    2.9436    1.6767 C   0  0  0  0  0  0  0  0  0  0  0  0
   -3.5344    0.4169   -1.2347 C   0  0  0  0  0  0  0  0  0  0  0  0
   -3.9749   -1.0528   -1.2369 C   0  0  1  0  0  0  0  0  0  0  0  0
   -4.8024   -1.3663   -2.4728 C   0  0  0  0  0  0  0  0  0  0  0  0
   -2.2084    0.3661   -0.5930 N   0  0  0  0  0  0  0  0  0  0  0  0
   -0.3001    1.2722    0.3675 N   0  0  0  0  0  0  0  0  0  0  0  0
   -6.4262   -3.1177   -3.8144 N   0  0  0  0  0  0  0  0  0  0  0  0
   -1.8913    2.6043   -0.5831 O   0  0  0  0  0  0  0  0  0  0  0  0
   -6.1372   -3.3039   -1.3769 O   0  0  0  0  0  0  0  0  0  0  0  0
   -4.2769   -3.8801   -2.8811 O   0  0  0  0  0  0  0  0  0  0  0  0
    7.2033   -1.1536    5.0237 Cl  0  0  0  0  0  0  0  0  0  0  0  0
   -5.3861   -3.0381   -2.5590 S   0  0  0  0  0  0  0  0  0  0  0  0
   -1.1768   -2.4712   -2.6531 H   0  0  0  0  0  0  0  0  0  0  0  0
   -1.8754   -0.9115   -3.0161 H   0  0  0  0  0  0  0  0  0  0  0  0
   -2.7886   -2.3703   -3.3198 H   0  0  0  0  0  0  0  0  0  0  0  0
   -2.8044   -2.8232   -0.8729 H   0  0  0  0  0  0  0  0  0  0  0  0
   -1.9139   -1.2853    0.6964 H   0  0  0  0  0  0  0  0  0  0  0  0
   -0.7308   -1.1482   -0.5826 H   0  0  0  0  0  0  0  0  0  0  0  0
   -0.0418    0.3479    0.5660 H   0  0  0  0  0  0  0  0  0  0  0  0
    0.0813    2.9533    1.5029 H   0  0  0  0  0  0  0  0  0  0  0  0
    0.8175    2.9483   -0.0821 H   0  0  0  0  0  0  0  0  0  0  0  0
    1.6658    1.2045    2.2102 H   0  0  0  0  0  0  0  0  0  0  0  0
    2.9826    0.1850    0.4102 H   0  0  0  0  0  0  0  0  0  0  0  0
    2.6954    1.5394   -0.6563 H   0  0  0  0  0  0  0  0  0  0  0  0
    4.6842    2.5396    0.3813 H   0  0  0  0  0  0  0  0  0  0  0  0
    3.1400    0.2826    2.8901 H   0  0  0  0  0  0  0  0  0  0  0  0
    4.4274   -1.0139    4.4863 H   0  0  0  0  0  0  0  0  0  0  0  0
    7.9663    0.7194    3.0372 H   0  0  0  0  0  0  0  0  0  0  0  0
    6.6812    2.0139    1.4435 H   0  0  0  0  0  0  0  0  0  0  0  0
    2.7610    3.8607    1.1510 H   0  0  0  0  0  0  0  0  0  0  0  0
    3.0672    3.1488    2.7174 H   0  0  0  0  0  0  0  0  0  0  0  0
   -3.4643    0.7986   -2.2318 H   0  0  0  0  0  0  0  0  0  0  0  0
   -4.2125    1.0204   -0.6681 H   0  0  0  0  0  0  0  0  0  0  0  0
   -4.5432   -1.2805   -0.3594 H   0  0  0  0  0  0  0  0  0  0  0  0
   -4.1989   -1.1779   -3.3361 H   0  0  0  0  0  0  0  0  0  0  0  0
   -5.6511   -0.7148   -2.4812 H   0  0  0  0  0  0  0  0  0  0  0  0
   -7.3924   -3.0906   -3.6527 H   0  0  0  0  0  0  0  0  0  0  0  0
   -6.0846   -3.1926   -4.7298 H   0  0  0  0  0  0  0  0  0  0  0  0
  1  2  1  0  0  0  0
  1 27  1  0  0  0  0
  1 28  1  0  0  0  0
  1 29  1  0  0  0  0
  2  3  1  0  0  0  0
  2 17  1  0  0  0  0
  2 30  1  1  0  0  0
  3 19  1  0  0  0  0
  3 31  1  0  0  0  0
  3 32  1  0  0  0  0
  4 19  1  0  0  0  0
  4 20  1  0  0  0  0
  4 22  2  0  0  0  0
  5 20  1  0  0  0  0
  5  6  1  0  0  0  0
  5 34  1  0  0  0  0
  5 35  1  0  0  0  0
  6  7  1  0  0  0  0
  6 15  1  0  0  0  0
  6 36  1  1  0  0  0
  7  8  1  0  0  0  0
  7 37  1  0  0  0  0
  7 38  1  0  0  0  0
  8  9  1  0  0  0  0
  8 15  1  0  0  0  0
  8 39  1  6  0  0  0
  9 14  1  0  0  0  0
  9 10  2  0  0  0  0
 10 11  1  0  0  0  0
 10 40  1  0  0  0  0
 11 41  1  0  0  0  0
 11 12  2  0  0  0  0
 12 25  1  0  0  0  0
 12 13  1  0  0  0  0
 13 42  1  0  0  0  0
 13 14  2  0  0  0  0
 14 43  1  0  0  0  0
 15 44  1  0  0  0  0
 15 45  1  0  0  0  0
 16 19  1  0  0  0  0
 16 17  1  0  0  0  0
 16 46  1  0  0  0  0
 16 47  1  0  0  0  0
 17 18  1  0  0  0  0
 17 48  1  1  0  0  0
 18 49  1  0  0  0  0
 18 50  1  0  0  0  0
 20 33  1  0  0  0  0
 21 51  1  0  0  0  0
 21 52  1  0  0  0  0
 26 18  1  0  0  0  0
 26 21  1  0  0  0  0
 26 23  2  0  0  0  0
 26 24  2  0  0  0  0
M  END
>  <score>
0.4498591423034668

$$$$
Z3297017925
 OpenBabel08202115463D

 50 53  0  0  0  0  0  0  0  0999 V2000
   -7.7145   -3.5853   -4.1564 C   0  0  0  0  0  0  0  0  0  0  0  0
   -6.9023   -2.3872   -3.7048 C   0  0  0  0  0  0  0  0  0  0  0  0
   -4.7264   -1.5856   -2.8769 C   0  0  0  0  0  0  0  0  0  0  0  0
   -5.1596   -0.3367   -2.4598 C   0  0  0  0  0  0  0  0  0  0  0  0
   -4.2477    0.5892   -1.9891 C   0  0  0  0  0  0  0  0  0  0  0  0
   -2.9008    0.2670   -1.9291 C   0  0  0  0  0  0  0  0  0  0  0  0
   -1.9780    1.2467   -1.3102 C   0  0  0  0  0  0  0  0  0  0  0  0
   -2.1552    2.5966   -1.3104 C   0  0  0  0  0  0  0  0  0  0  0  0
   -0.1644    1.7865   -0.1980 C   0  0  0  0  0  0  0  0  0  0  0  0
    1.6750    0.5242    0.8414 C   0  0  0  0  0  0  0  0  0  0  0  0
    3.0458    0.6723    1.5865 C   0  0  0  0  0  0  0  0  0  0  0  0
    3.6845   -0.5929    2.2119 C   0  0  1  0  0  0  0  0  0  0  0  0
    5.1904   -0.5884    1.9412 C   0  0  0  0  0  0  0  0  0  0  0  0
    5.8469    0.5831    2.6424 C   0  0  0  0  0  0  0  0  0  0  0  0
    5.4852    0.6132    4.1258 C   0  0  0  0  0  0  0  0  0  0  0  0
    3.9694    0.5467    4.2900 C   0  0  0  0  0  0  0  0  0  0  0  0
    3.2509    2.0146    2.2152 C   0  0  0  0  0  0  0  0  0  0  0  0
    3.9153    1.6920    0.9135 C   0  0  0  0  0  0  0  0  0  0  0  0
   -2.4691   -0.9783   -2.3452 C   0  0  0  0  0  0  0  0  0  0  0  0
   -3.3835   -1.9070   -2.8173 C   0  0  0  0  0  0  0  0  0  0  0  0
   -7.3807   -1.2637   -3.7218 O   0  0  0  0  0  0  0  0  0  0  0  0
    1.1946   -0.5914    0.6598 O   0  0  0  0  0  0  0  0  0  0  0  0
    3.4453   -0.5974    3.6280 O   0  0  0  0  0  0  0  0  0  0  0  0
   -5.6295   -2.6014   -3.2820 N   0  0  0  0  0  0  0  0  0  0  0  0
    1.0447    1.6558    0.5086 N   0  0  0  0  0  0  0  0  0  0  0  0
   -0.8502    0.7891   -0.6813 N   0  0  0  0  0  0  0  0  0  0  0  0
   -0.8520    3.3460   -0.4854 S   0  0  0  0  0  0  0  0  0  0  0  0
   -7.2929   -4.4784   -3.7448 H   0  0  0  0  0  0  0  0  0  0  0  0
   -7.6997   -3.6437   -5.2247 H   0  0  0  0  0  0  0  0  0  0  0  0
   -8.7242   -3.4792   -3.8185 H   0  0  0  0  0  0  0  0  0  0  0  0
   -5.3112   -3.5278   -3.2547 H   0  0  0  0  0  0  0  0  0  0  0  0
   -6.1706   -0.0964   -2.5009 H   0  0  0  0  0  0  0  0  0  0  0  0
   -4.5721    1.5277   -1.6798 H   0  0  0  0  0  0  0  0  0  0  0  0
   -2.9575    3.0964   -1.7441 H   0  0  0  0  0  0  0  0  0  0  0  0
    1.4750    2.4902    0.7894 H   0  0  0  0  0  0  0  0  0  0  0  0
    3.2477   -1.4666    1.7751 H   0  0  0  0  0  0  0  0  0  0  0  0
    5.3593   -0.5089    0.8876 H   0  0  0  0  0  0  0  0  0  0  0  0
    5.6168   -1.5005    2.3035 H   0  0  0  0  0  0  0  0  0  0  0  0
    5.5176    1.4925    2.1846 H   0  0  0  0  0  0  0  0  0  0  0  0
    6.9089    0.4979    2.5440 H   0  0  0  0  0  0  0  0  0  0  0  0
    5.9327   -0.2252    4.6174 H   0  0  0  0  0  0  0  0  0  0  0  0
    5.8501    1.5196    4.5619 H   0  0  0  0  0  0  0  0  0  0  0  0
    3.7306    0.4906    5.3315 H   0  0  0  0  0  0  0  0  0  0  0  0
    3.5311    1.4277    3.8699 H   0  0  0  0  0  0  0  0  0  0  0  0
    3.8362    2.1035    3.1065 H   0  0  0  0  0  0  0  0  0  0  0  0
    2.4465    2.7196    2.2444 H   0  0  0  0  0  0  0  0  0  0  0  0
    3.5854    2.1655    0.0126 H   0  0  0  0  0  0  0  0  0  0  0  0
    4.9751    1.5494    0.8747 H   0  0  0  0  0  0  0  0  0  0  0  0
   -1.4581   -1.2186   -2.3040 H   0  0  0  0  0  0  0  0  0  0  0  0
   -3.0591   -2.8454   -3.1265 H   0  0  0  0  0  0  0  0  0  0  0  0
  1  2  1  0  0  0  0
  1 28  1  0  0  0  0
  1 29  1  0  0  0  0
  1 30  1  0  0  0  0
  2 24  1  0  0  0  0
  2 21  2  0  0  0  0
  3 24  1  0  0  0  0
  3 20  1  0  0  0  0
  3  4  2  0  0  0  0
  4  5  1  0  0  0  0
  4 32  1  0  0  0  0
  5 33  1  0  0  0  0
  5  6  2  0  0  0  0
  6  7  1  0  0  0  0
  6 19  1  0  0  0  0
  7 26  1  0  0  0  0
  7  8  2  0  0  0  0
  8 27  1  0  0  0  0
  8 34  1  0  0  0  0
  9 27  1  0  0  0  0
  9 25  1  0  0  0  0
  9 26  2  0  0  0  0
 10 25  1  0  0  0  0
 10 11  1  0  0  0  0
 10 22  2  0  0  0  0
 11 12  1  0  0  0  0
 11 17  1  0  0  0  0
 11 18  1  0  0  0  0
 12 13  1  0  0  0  0
 12 23  1  0  0  0  0
 12 36  1  6  0  0  0
 13 14  1  0  0  0  0
 13 37  1  0  0  0  0
 13 38  1  0  0  0  0
 14 15  1  0  0  0  0
 14 39  1  0  0  0  0
 14 40  1  0  0  0  0
 15 16  1  0  0  0  0
 15 41  1  0  0  0  0
 15 42  1  0  0  0  0
 16 23  1  0  0  0  0
 16 43  1  0  0  0  0
 16 44  1  0  0  0  0
 17 18  1  0  0  0  0
 17 45  1  0  0  0  0
 17 46  1  0  0  0  0
 18 47  1  0  0  0  0
 18 48  1  0  0  0  0
 19 49  1  0  0  0  0
 19 20  2  0  0  0  0
 20 50  1  0  0  0  0
 24 31  1  0  0  0  0
 25 35  1  0  0  0  0
M  END
>  <score>
0.44986844062805176

$$$$
PV-004014856387
 OpenBabel08202115463D

 48 50  0  0  0  0  0  0  0  0999 V2000
    1.6073   -0.1800    2.6775 C   0  0  0  0  0  0  0  0  0  0  0  0
    2.0282    0.4169    1.3328 C   0  0  0  0  0  0  0  0  0  0  0  0
    3.4303   -0.0556    0.9845 C   0  0  0  0  0  0  0  0  0  0  0  0
    1.0347    0.0560    0.2331 C   0  0  0  0  0  0  0  0  0  0  0  0
   -0.0466    1.1216    0.3729 C   0  0  2  0  0  0  0  0  0  0  0  0
   -0.8176    1.2766   -0.9179 C   0  0  0  0  0  0  0  0  0  0  0  0
   -2.6768    0.0971   -2.0627 C   0  0  0  0  0  0  0  0  0  0  0  0
   -3.4664   -1.1819   -2.1136 C   0  0  0  0  0  0  0  0  0  0  0  0
   -4.3131   -1.3719   -3.3512 C   0  0  0  0  0  0  0  0  0  0  0  0
   -5.0449   -3.8265   -3.3608 C   0  0  0  0  0  0  0  0  0  0  0  0
   -7.0765   -3.4499   -3.1548 C   0  0  0  0  0  0  0  0  0  0  0  0
    0.7324    2.4024    0.6994 C   0  0  0  0  0  0  0  0  0  0  0  0
    2.8917    2.6870    1.9128 C   0  0  0  0  0  0  0  0  0  0  0  0
    4.1091    2.0156    2.4099 C   0  0  0  0  0  0  0  0  0  0  0  0
    5.6008    0.7756    3.4606 C   0  0  0  0  0  0  0  0  0  0  0  0
    4.2522    1.0353    3.4012 C   0  0  0  0  0  0  0  0  0  0  0  0
   -1.6376    0.1037   -1.2265 N   0  0  0  0  0  0  0  0  0  0  0  0
   -5.2228   -2.5135   -3.2394 N   0  0  0  0  0  0  0  0  0  0  0  0
   -6.2023   -4.4599   -3.3115 N   0  0  0  0  0  0  0  0  0  0  0  0
   -6.5475   -2.2417   -3.0993 N   0  0  0  0  0  0  0  0  0  0  0  0
    1.9507    1.8932    1.3545 N   0  0  0  0  0  0  0  0  0  0  0  0
    5.2917    2.3420    1.8802 N   0  0  0  0  0  0  0  0  0  0  0  0
    6.1948    1.5748    2.5428 N   0  0  0  0  0  0  0  0  0  0  0  0
   -2.9849    1.0656   -2.7561 O   0  0  0  0  0  0  0  0  0  0  0  0
    2.7599    3.9056    2.0108 O   0  0  0  0  0  0  0  0  0  0  0  0
    3.2469    0.4945    4.1160 F   0  0  0  0  0  0  0  0  0  0  0  0
    0.8533    0.4359    3.1213 H   0  0  0  0  0  0  0  0  0  0  0  0
    2.4561   -0.2283    3.3273 H   0  0  0  0  0  0  0  0  0  0  0  0
    1.2183   -1.1649    2.5242 H   0  0  0  0  0  0  0  0  0  0  0  0
    3.8160    0.6694    0.2986 H   0  0  0  0  0  0  0  0  0  0  0  0
    3.3956   -1.0218    0.5261 H   0  0  0  0  0  0  0  0  0  0  0  0
    4.0389   -0.0988    1.8635 H   0  0  0  0  0  0  0  0  0  0  0  0
    0.6305   -0.9226    0.3881 H   0  0  0  0  0  0  0  0  0  0  0  0
    1.4965    0.1031   -0.7310 H   0  0  0  0  0  0  0  0  0  0  0  0
   -0.7224    0.8755    1.1652 H   0  0  0  0  0  0  0  0  0  0  0  0
   -0.1220    1.4283   -1.7166 H   0  0  0  0  0  0  0  0  0  0  0  0
   -1.4575    2.1301   -0.8346 H   0  0  0  0  0  0  0  0  0  0  0  0
   -1.4056   -0.7401   -0.7854 H   0  0  0  0  0  0  0  0  0  0  0  0
   -4.1155   -1.2032   -1.2632 H   0  0  0  0  0  0  0  0  0  0  0  0
   -2.7768   -1.9981   -2.0570 H   0  0  0  0  0  0  0  0  0  0  0  0
   -3.6659   -1.5300   -4.1884 H   0  0  0  0  0  0  0  0  0  0  0  0
   -4.8923   -0.4862   -3.5096 H   0  0  0  0  0  0  0  0  0  0  0  0
   -4.1214   -4.2900   -3.4784 H   0  0  0  0  0  0  0  0  0  0  0  0
   -8.1015   -3.6101   -3.0821 H   0  0  0  0  0  0  0  0  0  0  0  0
    0.9730    2.9434   -0.1918 H   0  0  0  0  0  0  0  0  0  0  0  0
    0.1755    3.0328    1.3607 H   0  0  0  0  0  0  0  0  0  0  0  0
    7.1604    1.5968    2.3769 H   0  0  0  0  0  0  0  0  0  0  0  0
    6.0740    0.0959    4.0896 H   0  0  0  0  0  0  0  0  0  0  0  0
  1  2  1  0  0  0  0
  1 27  1  0  0  0  0
  1 28  1  0  0  0  0
  1 29  1  0  0  0  0
  2  3  1  0  0  0  0
  2  4  1  0  0  0  0
  2 21  1  0  0  0  0
  3 30  1  0  0  0  0
  3 31  1  0  0  0  0
  3 32  1  0  0  0  0
  4  5  1  0  0  0  0
  4 33  1  0  0  0  0
  4 34  1  0  0  0  0
  5  6  1  0  0  0  0
  5 12  1  0  0  0  0
  5 35  1  1  0  0  0
  6 17  1  0  0  0  0
  6 36  1  0  0  0  0
  6 37  1  0  0  0  0
  7 17  1  0  0  0  0
  7  8  1  0  0  0  0
  7 24  2  0  0  0  0
  8  9  1  0  0  0  0
  8 39  1  0  0  0  0
  8 40  1  0  0  0  0
  9 18  1  0  0  0  0
  9 41  1  0  0  0  0
  9 42  1  0  0  0  0
 10 18  1  0  0  0  0
 10 43  1  0  0  0  0
 10 19  2  0  0  0  0
 11 19  1  0  0  0  0
 11 44  1  0  0  0  0
 11 20  2  0  0  0  0
 12 21  1  0  0  0  0
 12 45  1  0  0  0  0
 12 46  1  0  0  0  0
 13 21  1  0  0  0  0
 13 14  1  0  0  0  0
 13 25  2  0  0  0  0
 14 16  1  0  0  0  0
 14 22  2  0  0  0  0
 15 23  1  0  0  0  0
 15 48  1  0  0  0  0
 15 16  2  0  0  0  0
 16 26  1  0  0  0  0
 17 38  1  0  0  0  0
 18 20  1  0  0  0  0
 22 23  1  0  0  0  0
 23 47  1  0  0  0  0
M  END
>  <score>
0.44991058111190796

$$$$
PV-003724513595
 OpenBabel08202115463D

 55 56  0  0  0  0  0  0  0  0999 V2000
    3.5645    0.9304   -0.3343 C   0  0  0  0  0  0  0  0  0  0  0  0
    2.7855    0.9175    0.9358 C   0  0  0  0  0  0  0  0  0  0  0  0
    1.4312    1.0253    1.1454 C   0  0  0  0  0  0  0  0  0  0  0  0
    0.3711    1.1879    0.1036 C   0  0  0  0  0  0  0  0  0  0  0  0
   -1.9953    1.2697   -0.4186 C   0  0  0  0  0  0  0  0  0  0  0  0
   -2.5416   -0.0838   -0.8651 C   0  0  1  0  0  0  0  0  0  0  0  0
   -3.0821   -0.8846    0.3244 C   0  0  0  0  0  0  0  0  0  0  0  0
   -3.5851    0.0812   -1.9461 C   0  0  0  0  0  0  0  0  0  0  0  0
   -5.4571   -1.5111   -2.3786 C   0  0  0  0  0  0  0  0  0  0  0  0
   -5.8436   -2.7815   -2.9785 C   0  0  0  0  0  0  0  0  0  0  0  0
   -5.0678   -3.8536   -3.3744 C   0  0  0  0  0  0  0  0  0  0  0  0
   -5.9255   -4.8348   -3.8926 C   0  0  0  0  0  0  0  0  0  0  0  0
   -7.2199   -4.3406   -3.8062 C   0  0  0  0  0  0  0  0  0  0  0  0
    1.2663    0.9499    2.5351 C   0  0  0  0  0  0  0  0  0  0  0  0
    4.7742    0.6279    2.5535 C   0  0  1  0  0  0  0  0  0  0  0  0
    5.4543   -0.3420    1.6010 C   0  0  0  0  0  0  0  0  0  0  0  0
    5.5012    1.9597    2.6426 C   0  0  0  0  0  0  0  0  0  0  0  0
    4.9813    2.8342    3.7877 C   0  0  0  0  0  0  0  0  0  0  0  0
    5.4716    2.7370    1.3367 C   0  0  0  0  0  0  0  0  0  0  0  0
    0.6678    1.3517   -1.0723 O   0  0  0  0  0  0  0  0  0  0  0  0
   -6.3182   -0.7334   -1.9547 O   0  0  0  0  0  0  0  0  0  0  0  0
   -0.8999    1.1437    0.5312 N   0  0  0  0  0  0  0  0  0  0  0  0
   -4.1444   -1.1981   -2.3866 N   0  0  0  0  0  0  0  0  0  0  0  0
   -7.1557   -3.0987   -3.2501 N   0  0  0  0  0  0  0  0  0  0  0  0
    2.4427    0.8106    3.1535 N   0  0  0  0  0  0  0  0  0  0  0  0
    3.3616    0.7865    2.1544 N   0  0  0  0  0  0  0  0  0  0  0  0
    2.8978    1.0608   -1.1609 H   0  0  0  0  0  0  0  0  0  0  0  0
    4.0876    0.0031   -0.4410 H   0  0  0  0  0  0  0  0  0  0  0  0
    4.2677    1.7367   -0.3129 H   0  0  0  0  0  0  0  0  0  0  0  0
   -1.0910    1.0263    1.4852 H   0  0  0  0  0  0  0  0  0  0  0  0
   -1.6432    1.7984   -1.2797 H   0  0  0  0  0  0  0  0  0  0  0  0
   -2.7864    1.8237    0.0420 H   0  0  0  0  0  0  0  0  0  0  0  0
   -1.7279   -0.6386   -1.2835 H   0  0  0  0  0  0  0  0  0  0  0  0
   -2.4534   -0.7277    1.1758 H   0  0  0  0  0  0  0  0  0  0  0  0
   -3.0942   -1.9256    0.0772 H   0  0  0  0  0  0  0  0  0  0  0  0
   -4.0761   -0.5596    0.5506 H   0  0  0  0  0  0  0  0  0  0  0  0
   -3.1343    0.5659   -2.7867 H   0  0  0  0  0  0  0  0  0  0  0  0
   -4.3790    0.6898   -1.5662 H   0  0  0  0  0  0  0  0  0  0  0  0
   -3.5183   -1.8784   -2.7117 H   0  0  0  0  0  0  0  0  0  0  0  0
   -4.0326   -3.9212   -3.3012 H   0  0  0  0  0  0  0  0  0  0  0  0
   -5.6439   -5.7615   -4.2716 H   0  0  0  0  0  0  0  0  0  0  0  0
   -8.0846   -4.8311   -4.1116 H   0  0  0  0  0  0  0  0  0  0  0  0
   -7.9257   -2.5196   -3.0708 H   0  0  0  0  0  0  0  0  0  0  0  0
    0.3482    0.9962    3.0216 H   0  0  0  0  0  0  0  0  0  0  0  0
    4.7938    0.1865    3.5280 H   0  0  0  0  0  0  0  0  0  0  0  0
    6.4697   -0.4424    1.9233 H   0  0  0  0  0  0  0  0  0  0  0  0
    5.4230    0.0421    0.6028 H   0  0  0  0  0  0  0  0  0  0  0  0
    4.9638   -1.2923    1.6336 H   0  0  0  0  0  0  0  0  0  0  0  0
    6.5271    1.7438    2.8564 H   0  0  0  0  0  0  0  0  0  0  0  0
    5.1195    2.3239    4.7179 H   0  0  0  0  0  0  0  0  0  0  0  0
    3.9400    3.0318    3.6408 H   0  0  0  0  0  0  0  0  0  0  0  0
    5.5212    3.7579    3.8042 H   0  0  0  0  0  0  0  0  0  0  0  0
    6.0468    3.6331    1.4413 H   0  0  0  0  0  0  0  0  0  0  0  0
    4.4602    2.9888    1.0947 H   0  0  0  0  0  0  0  0  0  0  0  0
    5.8870    2.1361    0.5548 H   0  0  0  0  0  0  0  0  0  0  0  0
  1  2  1  0  0  0  0
  1 27  1  0  0  0  0
  1 28  1  0  0  0  0
  1 29  1  0  0  0  0
  2 26  1  0  0  0  0
  2  3  2  0  0  0  0
  3  4  1  0  0  0  0
  3 14  1  0  0  0  0
  4 22  1  0  0  0  0
  4 20  2  0  0  0  0
  5 22  1  0  0  0  0
  5  6  1  0  0  0  0
  5 31  1  0  0  0  0
  5 32  1  0  0  0  0
  6  7  1  0  0  0  0
  6  8  1  0  0  0  0
  6 33  1  6  0  0  0
  7 34  1  0  0  0  0
  7 35  1  0  0  0  0
  7 36  1  0  0  0  0
  8 23  1  0  0  0  0
  8 37  1  0  0  0  0
  8 38  1  0  0  0  0
  9 23  1  0  0  0  0
  9 10  1  0  0  0  0
  9 21  2  0  0  0  0
 10 24  1  0  0  0  0
 10 11  2  0  0  0  0
 11 12  1  0  0  0  0
 11 40  1  0  0  0  0
 12 41  1  0  0  0  0
 12 13  2  0  0  0  0
 13 24  1  0  0  0  0
 13 42  1  0  0  0  0
 14 44  1  0  0  0  0
 14 25  2  0  0  0  0
 15 26  1  0  0  0  0
 15 16  1  0  0  0  0
 15 17  1  0  0  0  0
 15 45  1  1  0  0  0
 16 46  1  0  0  0  0
 16 47  1  0  0  0  0
 16 48  1  0  0  0  0
 17 18  1  0  0  0  0
 17 19  1  0  0  0  0
 17 49  1  0  0  0  0
 18 50  1  0  0  0  0
 18 51  1  0  0  0  0
 18 52  1  0  0  0  0
 19 53  1  0  0  0  0
 19 54  1  0  0  0  0
 19 55  1  0  0  0  0
 22 30  1  0  0  0  0
 23 39  1  0  0  0  0
 24 43  1  0  0  0  0
 25 26  1  0  0  0  0
M  END
>  <score>
0.44997173547744751

$$$$
PV-003092815060
 OpenBabel08202115463D

 48 51  0  0  0  0  0  0  0  0999 V2000
   -7.1560   -3.1332   -3.1819 C   0  0  0  0  0  0  0  0  0  0  0  0
   -6.2140   -2.2806   -2.6602 C   0  0  0  0  0  0  0  0  0  0  0  0
   -2.6762   -2.2656   -3.0874 C   0  0  0  0  0  0  0  0  0  0  0  0
   -3.7883   -1.6402   -2.5812 C   0  0  0  0  0  0  0  0  0  0  0  0
   -3.9421   -0.3695   -1.8083 C   0  0  0  0  0  0  0  0  0  0  0  0
   -2.5031    1.5718   -0.8427 C   0  0  0  0  0  0  0  0  0  0  0  0
   -1.1538    0.9110   -0.5566 C   0  0  0  0  0  0  0  0  0  0  0  0
   -0.8523    0.2390    0.7826 C   0  0  0  0  0  0  0  0  0  0  0  0
    0.6208    0.5336    0.4783 C   0  0  0  0  0  0  0  0  0  0  0  0
    2.7399    0.5606    1.6810 C   0  0  0  0  0  0  0  0  0  0  0  0
    3.4352    0.9913    2.9455 C   0  0  1  0  0  0  0  0  0  0  0  0
    4.3659   -0.1054    3.4033 C   0  0  0  0  0  0  0  0  0  0  0  0
    5.3812   -0.4046    2.3100 C   0  0  0  0  0  0  0  0  0  0  0  0
    5.9517    0.8080    1.6394 C   0  0  0  0  0  0  0  0  0  0  0  0
    4.2194    2.2520    2.6803 C   0  0  0  0  0  0  0  0  0  0  0  0
    0.1204    1.7312   -0.3370 C   0  0  0  0  0  0  0  0  0  0  0  0
   -1.3826    0.1003   -1.8332 C   0  0  0  0  0  0  0  0  0  0  0  0
   -4.8229   -2.4309   -2.9251 N   0  0  0  0  0  0  0  0  0  0  0  0
   -4.3918   -3.5028   -3.6216 N   0  0  0  0  0  0  0  0  0  0  0  0
   -3.0906   -3.4034   -3.7190 N   0  0  0  0  0  0  0  0  0  0  0  0
   -2.8113    0.3124   -1.5423 N   0  0  0  0  0  0  0  0  0  0  0  0
    1.4318    0.8812    1.6462 N   0  0  0  0  0  0  0  0  0  0  0  0
    5.3648    1.9831    1.8034 N   0  0  0  0  0  0  0  0  0  0  0  0
   -5.0567    0.0173   -1.4422 O   0  0  0  0  0  0  0  0  0  0  0  0
    3.3358   -0.0227    0.7905 O   0  0  0  0  0  0  0  0  0  0  0  0
    6.9512    0.7127    0.9463 O   0  0  0  0  0  0  0  0  0  0  0  0
   -8.1653   -2.9749   -2.9871 H   0  0  0  0  0  0  0  0  0  0  0  0
   -6.8600   -3.9370   -3.7717 H   0  0  0  0  0  0  0  0  0  0  0  0
   -6.5275   -1.4984   -2.0507 H   0  0  0  0  0  0  0  0  0  0  0  0
   -1.6943   -1.9328   -3.0048 H   0  0  0  0  0  0  0  0  0  0  0  0
   -2.4634    2.4420   -1.4640 H   0  0  0  0  0  0  0  0  0  0  0  0
   -3.1044    1.7751    0.0188 H   0  0  0  0  0  0  0  0  0  0  0  0
   -1.1039   -0.7998    0.8333 H   0  0  0  0  0  0  0  0  0  0  0  0
   -1.2460    0.7440    1.6399 H   0  0  0  0  0  0  0  0  0  0  0  0
    1.1211   -0.2207   -0.0923 H   0  0  0  0  0  0  0  0  0  0  0  0
    1.0224    1.3481    2.4044 H   0  0  0  0  0  0  0  0  0  0  0  0
    2.7074    1.1798    3.7068 H   0  0  0  0  0  0  0  0  0  0  0  0
    4.8785    0.2094    4.2883 H   0  0  0  0  0  0  0  0  0  0  0  0
    3.7991   -0.9882    3.6138 H   0  0  0  0  0  0  0  0  0  0  0  0
    6.1883   -0.9555    2.7460 H   0  0  0  0  0  0  0  0  0  0  0  0
    4.9016   -1.0036    1.5643 H   0  0  0  0  0  0  0  0  0  0  0  0
    5.7266    2.7389    1.2952 H   0  0  0  0  0  0  0  0  0  0  0  0
    3.5799    2.9697    2.2104 H   0  0  0  0  0  0  0  0  0  0  0  0
    4.5750    2.6450    3.6099 H   0  0  0  0  0  0  0  0  0  0  0  0
    0.6816    1.9403   -1.2237 H   0  0  0  0  0  0  0  0  0  0  0  0
   -0.0140    2.6338    0.2218 H   0  0  0  0  0  0  0  0  0  0  0  0
   -1.0270    0.5555   -2.7338 H   0  0  0  0  0  0  0  0  0  0  0  0
   -1.0542   -0.9173   -1.7936 H   0  0  0  0  0  0  0  0  0  0  0  0
  1 27  1  0  0  0  0
  1 28  1  0  0  0  0
  1  2  2  0  0  0  0
  2 18  1  0  0  0  0
  2 29  1  0  0  0  0
  3 20  1  0  0  0  0
  3 30  1  0  0  0  0
  3  4  2  0  0  0  0
  4 18  1  0  0  0  0
  4  5  1  0  0  0  0
  5 21  1  0  0  0  0
  5 24  2  0  0  0  0
  6 21  1  0  0  0  0
  6  7  1  0  0  0  0
  6 31  1  0  0  0  0
  6 32  1  0  0  0  0
  7  8  1  0  0  0  0
  7 16  1  0  0  0  0
  7 17  1  0  0  0  0
  8  9  1  0  0  0  0
  8 33  1  0  0  0  0
  8 34  1  0  0  0  0
  9 22  1  0  0  0  0
  9 16  1  0  0  0  0
  9 35  1  0  0  0  0
 10 22  1  0  0  0  0
 10 11  1  0  0  0  0
 10 25  2  0  0  0  0
 11 12  1  0  0  0  0
 11 15  1  0  0  0  0
 11 37  1  1  0  0  0
 12 13  1  0  0  0  0
 12 38  1  0  0  0  0
 12 39  1  0  0  0  0
 13 14  1  0  0  0  0
 13 40  1  0  0  0  0
 13 41  1  0  0  0  0
 14 23  1  0  0  0  0
 14 26  2  0  0  0  0
 15 23  1  0  0  0  0
 15 43  1  0  0  0  0
 15 44  1  0  0  0  0
 16 45  1  0  0  0  0
 16 46  1  0  0  0  0
 17 21  1  0  0  0  0
 17 47  1  0  0  0  0
 17 48  1  0  0  0  0
 18 19  1  0  0  0  0
 19 20  2  0  0  0  0
 22 36  1  0  0  0  0
 23 42  1  0  0  0  0
M  END
>  <score>
0.44998514652252197

$$$$
Z4326995025
 OpenBabel08202115463D

 39 40  0  0  0  0  0  0  0  0999 V2000
    5.2267    1.1080    2.1370 C   0  0  0  0  0  0  0  0  0  0  0  0
    3.8146    0.7167    2.5774 C   0  0  0  0  0  0  0  0  0  0  0  0
    3.5449    1.4599    3.8905 C   0  0  0  0  0  0  0  0  0  0  0  0
    3.8134   -0.7900    2.8497 C   0  0  0  0  0  0  0  0  0  0  0  0
    2.8163    1.0188    1.5217 C   0  0  0  0  0  0  0  0  0  0  0  0
    1.9591    0.2917    0.7841 C   0  0  0  0  0  0  0  0  0  0  0  0
    1.2919    1.2335   -0.0426 C   0  0  0  0  0  0  0  0  0  0  0  0
    0.2289    0.9616   -1.0669 C   0  0  0  0  0  0  0  0  0  0  0  0
   -1.1679    1.2324   -0.5569 C   0  0  0  0  0  0  0  0  0  0  0  0
   -2.6617   -0.5060   -1.3917 C   0  0  0  0  0  0  0  0  0  0  0  0
   -3.7373   -0.8715   -2.3038 C   0  0  0  0  0  0  0  0  0  0  0  0
   -4.5359   -1.9784   -2.3077 C   0  0  0  0  0  0  0  0  0  0  0  0
   -5.4553   -1.9413   -3.3927 C   0  0  0  0  0  0  0  0  0  0  0  0
   -6.5006   -2.9765   -3.7648 C   0  0  0  0  0  0  0  0  0  0  0  0
   -2.2033    0.7608   -1.4782 N   0  0  0  0  0  0  0  0  0  0  0  0
   -5.3692   -0.8639   -4.1553 N   0  0  0  0  0  0  0  0  0  0  0  0
    1.7189    2.4545    0.1854 N   0  0  0  0  0  0  0  0  0  0  0  0
   -2.2112   -1.3194   -0.5960 O   0  0  0  0  0  0  0  0  0  0  0  0
    2.7062    2.3286    1.1866 O   0  0  0  0  0  0  0  0  0  0  0  0
   -7.7266   -2.5718   -3.4286 F   0  0  0  0  0  0  0  0  0  0  0  0
   -6.2937   -4.1280   -3.1241 F   0  0  0  0  0  0  0  0  0  0  0  0
   -6.5197   -3.2480   -5.0704 F   0  0  0  0  0  0  0  0  0  0  0  0
   -4.1845    0.1307   -3.6135 S   0  0  0  0  0  0  0  0  0  0  0  0
    5.3085    2.1744    2.1062 H   0  0  0  0  0  0  0  0  0  0  0  0
    5.4203    0.7074    1.1639 H   0  0  0  0  0  0  0  0  0  0  0  0
    5.9386    0.7158    2.8329 H   0  0  0  0  0  0  0  0  0  0  0  0
    4.3486    1.2808    4.5738 H   0  0  0  0  0  0  0  0  0  0  0  0
    2.6290    1.1082    4.3175 H   0  0  0  0  0  0  0  0  0  0  0  0
    3.4689    2.5095    3.6968 H   0  0  0  0  0  0  0  0  0  0  0  0
    4.5354   -1.0168    3.6062 H   0  0  0  0  0  0  0  0  0  0  0  0
    4.0619   -1.3148    1.9510 H   0  0  0  0  0  0  0  0  0  0  0  0
    2.8420   -1.0913    3.1823 H   0  0  0  0  0  0  0  0  0  0  0  0
    1.8157   -0.7379    0.8129 H   0  0  0  0  0  0  0  0  0  0  0  0
    0.2918   -0.0659   -1.3585 H   0  0  0  0  0  0  0  0  0  0  0  0
    0.4079    1.5858   -1.9174 H   0  0  0  0  0  0  0  0  0  0  0  0
   -1.2848    2.2873   -0.4208 H   0  0  0  0  0  0  0  0  0  0  0  0
   -1.2924    0.7351    0.3823 H   0  0  0  0  0  0  0  0  0  0  0  0
   -2.5644    1.3660   -2.1592 H   0  0  0  0  0  0  0  0  0  0  0  0
   -4.4797   -2.7474   -1.6097 H   0  0  0  0  0  0  0  0  0  0  0  0
  1  2  1  0  0  0  0
  1 24  1  0  0  0  0
  1 25  1  0  0  0  0
  1 26  1  0  0  0  0
  2  3  1  0  0  0  0
  2  4  1  0  0  0  0
  2  5  1  0  0  0  0
  3 27  1  0  0  0  0
  3 28  1  0  0  0  0
  3 29  1  0  0  0  0
  4 30  1  0  0  0  0
  4 31  1  0  0  0  0
  4 32  1  0  0  0  0
  5 19  1  0  0  0  0
  5  6  2  0  0  0  0
  6  7  1  0  0  0  0
  6 33  1  0  0  0  0
  7  8  1  0  0  0  0
  7 17  2  0  0  0  0
  8  9  1  0  0  0  0
  8 34  1  0  0  0  0
  8 35  1  0  0  0  0
  9 15  1  0  0  0  0
  9 36  1  0  0  0  0
  9 37  1  0  0  0  0
 10 15  1  0  0  0  0
 10 11  1  0  0  0  0
 10 18  2  0  0  0  0
 11 23  1  0  0  0  0
 11 12  2  0  0  0  0
 12 13  1  0  0  0  0
 12 39  1  0  0  0  0
 13 14  1  0  0  0  0
 13 16  2  0  0  0  0
 14 20  1  0  0  0  0
 14 21  1  0  0  0  0
 14 22  1  0  0  0  0
 15 38  1  0  0  0  0
 16 23  1  0  0  0  0
 17 19  1  0  0  0  0
M  END
>  <score>
0.44999998807907104

$$$$
PV-003967292210
 OpenBabel08202115463D

 47 50  0  0  0  0  0  0  0  0999 V2000
   -7.5089   -4.8600   -3.3015 C   0  0  0  0  0  0  0  0  0  0  0  0
   -6.3885   -2.7595   -3.0253 C   0  0  0  0  0  0  0  0  0  0  0  0
   -5.2465   -2.1229   -2.3943 C   0  0  0  0  0  0  0  0  0  0  0  0
   -4.2058   -2.5965   -1.6332 C   0  0  0  0  0  0  0  0  0  0  0  0
   -3.3868   -1.4606   -1.3088 C   0  0  0  0  0  0  0  0  0  0  0  0
   -2.2084   -1.2445   -0.5783 C   0  0  0  0  0  0  0  0  0  0  0  0
   -1.7279    0.0488   -0.4924 C   0  0  0  0  0  0  0  0  0  0  0  0
    0.2215   -0.6043    0.8869 C   0  0  0  0  0  0  0  0  0  0  0  0
    1.4982   -0.0503    1.3904 C   0  0  0  0  0  0  0  0  0  0  0  0
    2.2488   -0.7669    2.3043 C   0  0  0  0  0  0  0  0  0  0  0  0
    3.4387   -0.2487    2.7662 C   0  0  0  0  0  0  0  0  0  0  0  0
    3.8922    1.0005    2.3374 C   0  0  0  0  0  0  0  0  0  0  0  0
    5.1904    1.5610    2.8608 C   0  0  0  0  0  0  0  0  0  0  0  0
    5.3519    3.0449    2.5501 C   0  0  0  0  0  0  0  0  0  0  0  0
    5.7997    2.3715    0.3254 C   0  0  0  0  0  0  0  0  0  0  0  0
    3.6146    3.0617    0.9278 C   0  0  0  0  0  0  0  0  0  0  0  0
    3.1504    1.7161    1.4108 C   0  0  0  0  0  0  0  0  0  0  0  0
    1.9369    1.1788    0.9476 C   0  0  0  0  0  0  0  0  0  0  0  0
   -2.3764    1.1181   -1.1222 C   0  0  0  0  0  0  0  0  0  0  0  0
   -3.5404    0.9291   -1.8466 C   0  0  0  0  0  0  0  0  0  0  0  0
   -4.0069   -0.3650   -1.9028 C   0  0  0  0  0  0  0  0  0  0  0  0
   -6.4146   -4.0775   -2.7987 O   0  0  0  0  0  0  0  0  0  0  0  0
   -7.2191   -2.1809   -3.6770 O   0  0  0  0  0  0  0  0  0  0  0  0
   -0.0735   -1.7805    1.0517 O   0  0  0  0  0  0  0  0  0  0  0  0
   -5.1481   -0.7656   -2.5696 O   0  0  0  0  0  0  0  0  0  0  0  0
   -0.5543    0.2976    0.2487 N   0  0  0  0  0  0  0  0  0  0  0  0
    5.0474    3.2801    1.1396 N   0  0  0  0  0  0  0  0  0  0  0  0
   -8.4033   -4.6044   -2.7727 H   0  0  0  0  0  0  0  0  0  0  0  0
   -7.2973   -5.8996   -3.1623 H   0  0  0  0  0  0  0  0  0  0  0  0
   -7.6414   -4.6589   -4.3440 H   0  0  0  0  0  0  0  0  0  0  0  0
   -4.0424   -3.5831   -1.3478 H   0  0  0  0  0  0  0  0  0  0  0  0
   -1.7121   -2.0328   -0.1159 H   0  0  0  0  0  0  0  0  0  0  0  0
   -0.2688    1.2333    0.3072 H   0  0  0  0  0  0  0  0  0  0  0  0
    1.9165   -1.6929    2.6414 H   0  0  0  0  0  0  0  0  0  0  0  0
    4.0073   -0.7956    3.4438 H   0  0  0  0  0  0  0  0  0  0  0  0
    6.0010    1.0261    2.4117 H   0  0  0  0  0  0  0  0  0  0  0  0
    5.2189    1.4275    3.9221 H   0  0  0  0  0  0  0  0  0  0  0  0
    6.3588    3.3447    2.7529 H   0  0  0  0  0  0  0  0  0  0  0  0
    4.6805    3.6126    3.1599 H   0  0  0  0  0  0  0  0  0  0  0  0
    5.5558    2.5290   -0.7044 H   0  0  0  0  0  0  0  0  0  0  0  0
    5.5593    1.3653    0.5988 H   0  0  0  0  0  0  0  0  0  0  0  0
    6.8455    2.5419    0.4741 H   0  0  0  0  0  0  0  0  0  0  0  0
    3.4088    3.1379   -0.1195 H   0  0  0  0  0  0  0  0  0  0  0  0
    3.0723    3.8190    1.4544 H   0  0  0  0  0  0  0  0  0  0  0  0
    1.3644    1.7141    0.2640 H   0  0  0  0  0  0  0  0  0  0  0  0
   -1.9749    2.0743   -1.0439 H   0  0  0  0  0  0  0  0  0  0  0  0
   -4.0316    1.7150   -2.3186 H   0  0  0  0  0  0  0  0  0  0  0  0
  1 22  1  0  0  0  0
  1 28  1  0  0  0  0
  1 29  1  0  0  0  0
  1 30  1  0  0  0  0
  2 22  1  0  0  0  0
  2  3  1  0  0  0  0
  2 23  2  0  0  0  0
  3 25  1  0  0  0  0
  3  4  2  0  0  0  0
  4  5  1  0  0  0  0
  4 31  1  0  0  0  0
  5 21  1  0  0  0  0
  5  6  2  0  0  0  0
  6  7  1  0  0  0  0
  6 32  1  0  0  0  0
  7 26  1  0  0  0  0
  7 19  2  0  0  0  0
  8 26  1  0  0  0  0
  8  9  1  0  0  0  0
  8 24  2  0  0  0  0
  9 18  1  0  0  0  0
  9 10  2  0  0  0  0
 10 11  1  0  0  0  0
 10 34  1  0  0  0  0
 11 35  1  0  0  0  0
 11 12  2  0  0  0  0
 12 13  1  0  0  0  0
 12 17  1  0  0  0  0
 13 14  1  0  0  0  0
 13 36  1  0  0  0  0
 13 37  1  0  0  0  0
 14 27  1  0  0  0  0
 14 38  1  0  0  0  0
 14 39  1  0  0  0  0
 15 27  1  0  0  0  0
 15 40  1  0  0  0  0
 15 41  1  0  0  0  0
 15 42  1  0  0  0  0
 16 27  1  0  0  0  0
 16 17  1  0  0  0  0
 16 43  1  0  0  0  0
 16 44  1  0  0  0  0
 17 18  2  0  0  0  0
 18 45  1  0  0  0  0
 19 20  1  0  0  0  0
 19 46  1  0  0  0  0
 20 47  1  0  0  0  0
 20 21  2  0  0  0  0
 21 25  1  0  0  0  0
 26 33  1  0  0  0  0
M  END
>  <score>
0.45009016990661621

$$$$
PV-004126761881
 OpenBabel08202115463D

 55 56  0  0  0  0  0  0  0  0999 V2000
   -6.1456   -2.2879   -2.4403 C   0  0  0  0  0  0  0  0  0  0  0  0
   -4.7406   -2.9421   -2.4854 C   0  0  0  0  0  0  0  0  0  0  0  0
   -4.6602   -3.8340   -3.7366 C   0  0  0  0  0  0  0  0  0  0  0  0
   -3.5778   -1.9448   -2.4562 C   0  0  0  0  0  0  0  0  0  0  0  0
   -1.8310   -0.8996   -1.0373 C   0  0  1  0  0  0  0  0  0  0  0  0
   -2.5036    0.2757   -0.3255 C   0  0  0  0  0  0  0  0  0  0  0  0
   -1.8362    1.6339   -0.5357 C   0  0  0  0  0  0  0  0  0  0  0  0
   -0.3009    1.6384   -0.4885 C   0  0  0  0  0  0  0  0  0  0  0  0
    0.3517    0.6874    0.5144 C   0  0  1  0  0  0  0  0  0  0  0  0
    2.2242    1.1067    2.0990 C   0  0  0  0  0  0  0  0  0  0  0  0
    3.6403    1.6634    2.1707 C   0  0  0  0  0  0  0  0  0  0  0  0
    4.6376    0.5326    2.0073 C   0  0  0  0  0  0  0  0  0  0  0  0
    6.0823    0.9889    2.0854 C   0  0  0  0  0  0  0  0  0  0  0  0
    3.9092    2.5890    3.4049 C   0  0  0  0  0  0  0  0  0  0  0  0
    4.4639    3.6477    2.4585 C   0  0  0  0  0  0  0  0  0  0  0  0
    3.8940    2.8684    1.2559 C   0  0  0  0  0  0  0  0  0  0  0  0
    0.5431   -0.7270   -0.0439 C   0  0  0  0  0  0  0  0  0  0  0  0
   -0.7234   -1.5531   -0.2160 C   0  0  0  0  0  0  0  0  0  0  0  0
   -4.5623   -3.7741   -1.3479 O   0  0  0  0  0  0  0  0  0  0  0  0
   -3.3842   -1.1677   -3.3901 O   0  0  0  0  0  0  0  0  0  0  0  0
    1.6793    0.6049    3.0786 O   0  0  0  0  0  0  0  0  0  0  0  0
   -2.8510   -1.9109   -1.3290 N   0  0  0  0  0  0  0  0  0  0  0  0
    1.6575    1.2232    0.8822 N   0  0  0  0  0  0  0  0  0  0  0  0
    6.8734   -0.0694    1.9499 F   0  0  0  0  0  0  0  0  0  0  0  0
    6.2883    1.4802    3.3419 F   0  0  0  0  0  0  0  0  0  0  0  0
   -6.2165   -1.5412   -3.2035 H   0  0  0  0  0  0  0  0  0  0  0  0
   -6.2971   -1.8346   -1.4830 H   0  0  0  0  0  0  0  0  0  0  0  0
   -6.8927   -3.0363   -2.6035 H   0  0  0  0  0  0  0  0  0  0  0  0
   -4.8313   -3.2402   -4.6101 H   0  0  0  0  0  0  0  0  0  0  0  0
   -5.4036   -4.6012   -3.6759 H   0  0  0  0  0  0  0  0  0  0  0  0
   -3.6897   -4.2809   -3.7939 H   0  0  0  0  0  0  0  0  0  0  0  0
   -3.6601   -4.1016   -1.3287 H   0  0  0  0  0  0  0  0  0  0  0  0
   -3.0124   -2.6065   -0.6579 H   0  0  0  0  0  0  0  0  0  0  0  0
   -1.4084   -0.5438   -1.9537 H   0  0  0  0  0  0  0  0  0  0  0  0
   -2.5073    0.0681    0.7242 H   0  0  0  0  0  0  0  0  0  0  0  0
   -3.5110    0.3440   -0.6796 H   0  0  0  0  0  0  0  0  0  0  0  0
   -2.1362    2.0021   -1.4945 H   0  0  0  0  0  0  0  0  0  0  0  0
   -2.1900    2.2951    0.2275 H   0  0  0  0  0  0  0  0  0  0  0  0
    0.0142    2.6320   -0.2470 H   0  0  0  0  0  0  0  0  0  0  0  0
    0.0553    1.3777   -1.4632 H   0  0  0  0  0  0  0  0  0  0  0  0
   -0.2688    0.6301    1.3842 H   0  0  0  0  0  0  0  0  0  0  0  0
    2.1605    1.7043    0.1923 H   0  0  0  0  0  0  0  0  0  0  0  0
    4.4777    0.0743    1.0537 H   0  0  0  0  0  0  0  0  0  0  0  0
    4.4663   -0.1855    2.7819 H   0  0  0  0  0  0  0  0  0  0  0  0
    6.2627    1.7305    1.3356 H   0  0  0  0  0  0  0  0  0  0  0  0
    3.0270    2.8880    3.9314 H   0  0  0  0  0  0  0  0  0  0  0  0
    4.6249    2.2005    4.0989 H   0  0  0  0  0  0  0  0  0  0  0  0
    5.5313    3.7229    2.4644 H   0  0  0  0  0  0  0  0  0  0  0  0
    4.0367    4.6197    2.5915 H   0  0  0  0  0  0  0  0  0  0  0  0
    4.6037    2.6850    0.4764 H   0  0  0  0  0  0  0  0  0  0  0  0
    3.0065    3.2955    0.8378 H   0  0  0  0  0  0  0  0  0  0  0  0
    1.0098   -0.6400   -1.0028 H   0  0  0  0  0  0  0  0  0  0  0  0
    1.1915   -1.2568    0.6222 H   0  0  0  0  0  0  0  0  0  0  0  0
   -0.4550   -2.4705   -0.6968 H   0  0  0  0  0  0  0  0  0  0  0  0
   -1.1151   -1.7615    0.7577 H   0  0  0  0  0  0  0  0  0  0  0  0
  1  2  1  0  0  0  0
  1 26  1  0  0  0  0
  1 27  1  0  0  0  0
  1 28  1  0  0  0  0
  2  3  1  0  0  0  0
  2 19  1  0  0  0  0
  2  4  1  0  0  0  0
  3 29  1  0  0  0  0
  3 30  1  0  0  0  0
  3 31  1  0  0  0  0
  4 22  1  0  0  0  0
  4 20  2  0  0  0  0
  5 22  1  0  0  0  0
  5  6  1  0  0  0  0
  5 18  1  0  0  0  0
  5 34  1  6  0  0  0
  6  7  1  0  0  0  0
  6 35  1  0  0  0  0
  6 36  1  0  0  0  0
  7  8  1  0  0  0  0
  7 37  1  0  0  0  0
  7 38  1  0  0  0  0
  8  9  1  0  0  0  0
  8 39  1  0  0  0  0
  8 40  1  0  0  0  0
  9 23  1  0  0  0  0
  9 17  1  0  0  0  0
  9 41  1  1  0  0  0
 10 23  1  0  0  0  0
 10 11  1  0  0  0  0
 10 21  2  0  0  0  0
 11 12  1  0  0  0  0
 11 14  1  0  0  0  0
 11 16  1  0  0  0  0
 12 13  1  0  0  0  0
 12 43  1  0  0  0  0
 12 44  1  0  0  0  0
 13 24  1  0  0  0  0
 13 25  1  0  0  0  0
 13 45  1  0  0  0  0
 14 15  1  0  0  0  0
 14 46  1  0  0  0  0
 14 47  1  0  0  0  0
 15 16  1  0  0  0  0
 15 48  1  0  0  0  0
 15 49  1  0  0  0  0
 16 50  1  0  0  0  0
 16 51  1  0  0  0  0
 17 18  1  0  0  0  0
 17 52  1  0  0  0  0
 17 53  1  0  0  0  0
 18 54  1  0  0  0  0
 18 55  1  0  0  0  0
 19 32  1  0  0  0  0
 22 33  1  0  0  0  0
 23 42  1  0  0  0  0
M  END
>  <score>
0.45009952783584595

$$$$
PV-003980150624
 OpenBabel08202115463D

 53 54  0  0  0  0  0  0  0  0999 V2000
    6.2697    1.7517    1.9257 C   0  0  0  0  0  0  0  0  0  0  0  0
    5.2266    2.0540    3.0081 C   0  0  0  0  0  0  0  0  0  0  0  0
    5.2500    0.9335    4.0546 C   0  0  0  0  0  0  0  0  0  0  0  0
    3.8230    2.1737    2.4059 C   0  0  0  0  0  0  0  0  0  0  0  0
    3.3067    0.8659    1.8382 C   0  0  0  0  0  0  0  0  0  0  0  0
    1.4273   -0.2787    0.7757 C   0  0  0  0  0  0  0  0  0  0  0  0
    0.0275    0.0250    0.2118 C   0  0  0  0  0  0  0  0  0  0  0  0
   -0.6154   -1.1059   -0.5579 C   0  0  0  0  0  0  0  0  0  0  0  0
   -2.7319   -1.6262   -1.6734 C   0  0  0  0  0  0  0  0  0  0  0  0
   -4.0492   -1.0861   -2.1622 C   0  0  0  0  0  0  0  0  0  0  0  0
   -5.0316   -2.1798   -2.5605 C   0  0  1  0  0  0  0  0  0  0  0  0
   -6.4633   -1.6908   -2.4602 C   0  0  0  0  0  0  0  0  0  0  0  0
   -6.2838   -3.0585   -4.3538 C   0  0  0  0  0  0  0  0  0  0  0  0
   -4.8971   -2.5260   -4.0338 C   0  0  1  0  0  0  0  0  0  0  0  0
   -0.3764    1.4072   -0.2069 C   0  0  0  0  0  0  0  0  0  0  0  0
   -0.9086    0.8233    1.0639 C   0  0  0  0  0  0  0  0  0  0  0  0
    5.5795    3.2932    3.6617 C   0  0  0  0  0  0  0  0  0  0  0  0
    3.9933   -0.1523    1.8571 O   0  0  0  0  0  0  0  0  0  0  0  0
   -2.4593   -2.8116   -1.7680 O   0  0  0  0  0  0  0  0  0  0  0  0
   -7.1815   -2.2677   -3.5667 O   0  0  0  0  0  0  0  0  0  0  0  0
   -4.5909   -1.3696   -4.8142 O   0  0  0  0  0  0  0  0  0  0  0  0
    2.0754    0.9022    1.3265 N   0  0  0  0  0  0  0  0  0  0  0  0
   -1.8992   -0.7287   -1.1384 N   0  0  0  0  0  0  0  0  0  0  0  0
    6.7642    2.7363    4.1423 F   0  0  0  0  0  0  0  0  0  0  0  0
    4.5565    3.4615    4.5739 F   0  0  0  0  0  0  0  0  0  0  0  0
    6.3271    2.5752    1.2450 H   0  0  0  0  0  0  0  0  0  0  0  0
    5.9850    0.8683    1.3932 H   0  0  0  0  0  0  0  0  0  0  0  0
    7.2249    1.6004    2.3836 H   0  0  0  0  0  0  0  0  0  0  0  0
    4.9856    0.0061    3.5909 H   0  0  0  0  0  0  0  0  0  0  0  0
    4.5485    1.1564    4.8312 H   0  0  0  0  0  0  0  0  0  0  0  0
    6.2322    0.8561    4.4720 H   0  0  0  0  0  0  0  0  0  0  0  0
    3.8504    2.8990    1.6198 H   0  0  0  0  0  0  0  0  0  0  0  0
    3.1509    2.5016    3.1712 H   0  0  0  0  0  0  0  0  0  0  0  0
    1.5903    1.7537    1.3213 H   0  0  0  0  0  0  0  0  0  0  0  0
    1.3335   -1.0110    1.5502 H   0  0  0  0  0  0  0  0  0  0  0  0
    2.0373   -0.6684   -0.0123 H   0  0  0  0  0  0  0  0  0  0  0  0
   -0.7689   -1.9297    0.1075 H   0  0  0  0  0  0  0  0  0  0  0  0
    0.0439   -1.4021   -1.3468 H   0  0  0  0  0  0  0  0  0  0  0  0
   -2.1600    0.2160   -1.1360 H   0  0  0  0  0  0  0  0  0  0  0  0
   -3.8675   -0.4647   -3.0141 H   0  0  0  0  0  0  0  0  0  0  0  0
   -4.4886   -0.5016   -1.3810 H   0  0  0  0  0  0  0  0  0  0  0  0
   -4.8748   -3.0417   -1.9462 H   0  0  0  0  0  0  0  0  0  0  0  0
   -6.8965   -2.0087   -1.5348 H   0  0  0  0  0  0  0  0  0  0  0  0
   -6.4922   -0.6228   -2.5197 H   0  0  0  0  0  0  0  0  0  0  0  0
   -6.4982   -2.9437   -5.3958 H   0  0  0  0  0  0  0  0  0  0  0  0
   -6.3600   -4.0914   -4.0851 H   0  0  0  0  0  0  0  0  0  0  0  0
   -4.1469   -3.2724   -4.1919 H   0  0  0  0  0  0  0  0  0  0  0  0
   -4.0728   -1.6278   -5.5800 H   0  0  0  0  0  0  0  0  0  0  0  0
   -1.0259    1.5436   -1.0462 H   0  0  0  0  0  0  0  0  0  0  0  0
    0.3347    2.2059   -0.1720 H   0  0  0  0  0  0  0  0  0  0  0  0
   -0.5784    1.2056    2.0072 H   0  0  0  0  0  0  0  0  0  0  0  0
   -1.9390    0.5432    1.1330 H   0  0  0  0  0  0  0  0  0  0  0  0
    5.7157    4.1108    2.9851 H   0  0  0  0  0  0  0  0  0  0  0  0
  1  2  1  0  0  0  0
  1 26  1  0  0  0  0
  1 27  1  0  0  0  0
  1 28  1  0  0  0  0
  2  3  1  0  0  0  0
  2  4  1  0  0  0  0
  2 17  1  0  0  0  0
  3 29  1  0  0  0  0
  3 30  1  0  0  0  0
  3 31  1  0  0  0  0
  4  5  1  0  0  0  0
  4 32  1  0  0  0  0
  4 33  1  0  0  0  0
  5 22  1  0  0  0  0
  5 18  2  0  0  0  0
  6 22  1  0  0  0  0
  6  7  1  0  0  0  0
  6 35  1  0  0  0  0
  6 36  1  0  0  0  0
  7  8  1  0  0  0  0
  7 15  1  0  0  0  0
  7 16  1  0  0  0  0
  8 23  1  0  0  0  0
  8 37  1  0  0  0  0
  8 38  1  0  0  0  0
  9 23  1  0  0  0  0
  9 10  1  0  0  0  0
  9 19  2  0  0  0  0
 10 11  1  0  0  0  0
 10 40  1  0  0  0  0
 10 41  1  0  0  0  0
 11 12  1  0  0  0  0
 11 14  1  0  0  0  0
 11 42  1  1  0  0  0
 12 20  1  0  0  0  0
 12 43  1  0  0  0  0
 12 44  1  0  0  0  0
 13 20  1  0  0  0  0
 13 14  1  0  0  0  0
 13 45  1  0  0  0  0
 13 46  1  0  0  0  0
 14 21  1  0  0  0  0
 14 47  1  6  0  0  0
 15 16  1  0  0  0  0
 15 49  1  0  0  0  0
 15 50  1  0  0  0  0
 16 51  1  0  0  0  0
 16 52  1  0  0  0  0
 17 24  1  0  0  0  0
 17 25  1  0  0  0  0
 17 53  1  0  0  0  0
 21 48  1  0  0  0  0
 22 34  1  0  0  0  0
 23 39  1  0  0  0  0
M  END
>  <score>
0.45011669397354126

$$$$
PV-003868355897
 OpenBabel08202115463D

 55 57  0  0  0  0  0  0  0  0999 V2000
   -2.0903    1.9986   -0.0030 C   0  0  0  0  0  0  0  0  0  0  0  0
   -1.6790    0.9757   -1.0494 C   0  0  1  0  0  0  0  0  0  0  0  0
   -0.4592    0.1792   -0.5893 C   0  0  2  0  0  0  0  0  0  0  0  0
    1.5136    0.5085    0.8330 C   0  0  0  0  0  0  0  0  0  0  0  0
    2.2565    1.4601    1.7505 C   0  0  0  0  0  0  0  0  0  0  0  0
    3.6662    0.9192    2.0751 C   0  0  0  0  0  0  0  0  0  0  0  0
    4.4106    1.9294    2.9610 C   0  0  0  0  0  0  0  0  0  0  0  0
    5.8526    1.5471    3.2241 C   0  0  0  0  0  0  0  0  0  0  0  0
    6.6120    1.3413    1.9345 C   0  0  0  0  0  0  0  0  0  0  0  0
    5.9147    0.3311    1.0308 C   0  0  0  0  0  0  0  0  0  0  0  0
    4.4594    0.7069    0.7492 C   0  0  0  0  0  0  0  0  0  0  0  0
   -1.0648   -0.9744    0.2043 C   0  0  0  0  0  0  0  0  0  0  0  0
   -2.3041   -1.3408   -0.5991 C   0  0  0  0  0  0  0  0  0  0  0  0
   -3.8873    0.1278   -1.8356 C   0  0  0  0  0  0  0  0  0  0  0  0
   -4.7998   -1.0519   -1.8813 C   0  0  1  0  0  0  0  0  0  0  0  0
   -5.9841   -0.7768   -2.8440 C   0  0  0  0  0  0  0  0  0  0  0  0
   -6.0138   -3.4554   -3.1737 C   0  0  0  0  0  0  0  0  0  0  0  0
   -4.4936   -3.5198   -2.9093 C   0  0  0  0  0  0  0  0  0  0  0  0
    0.4110    0.9979    0.2588 N   0  0  0  0  0  0  0  0  0  0  0  0
   -2.7125   -0.0657   -1.2085 N   0  0  0  0  0  0  0  0  0  0  0  0
    1.9153   -0.6364    0.6418 O   0  0  0  0  0  0  0  0  0  0  0  0
    3.5515   -0.3293    2.7677 O   0  0  0  0  0  0  0  0  0  0  0  0
   -4.2033    1.1926   -2.3404 O   0  0  0  0  0  0  0  0  0  0  0  0
   -6.3319   -2.0582   -3.4404 O   0  0  0  0  0  0  0  0  0  0  0  0
   -4.0983   -2.2102   -2.4139 O   0  0  0  0  0  0  0  0  0  0  0  0
   -2.2465    1.5073    0.9346 H   0  0  0  0  0  0  0  0  0  0  0  0
   -2.9967    2.4775   -0.3097 H   0  0  0  0  0  0  0  0  0  0  0  0
   -1.3174    2.7309    0.1026 H   0  0  0  0  0  0  0  0  0  0  0  0
   -1.4868    1.4719   -1.9777 H   0  0  0  0  0  0  0  0  0  0  0  0
    0.0981   -0.1844   -1.4273 H   0  0  0  0  0  0  0  0  0  0  0  0
    0.1761    1.9373    0.4101 H   0  0  0  0  0  0  0  0  0  0  0  0
    1.7053    1.5716    2.6608 H   0  0  0  0  0  0  0  0  0  0  0  0
    2.3479    2.4115    1.2694 H   0  0  0  0  0  0  0  0  0  0  0  0
    3.2960   -0.1680    3.6789 H   0  0  0  0  0  0  0  0  0  0  0  0
    4.3953    2.8828    2.4754 H   0  0  0  0  0  0  0  0  0  0  0  0
    3.9010    1.9983    3.8993 H   0  0  0  0  0  0  0  0  0  0  0  0
    5.8743    0.6390    3.7896 H   0  0  0  0  0  0  0  0  0  0  0  0
    6.3231    2.3280    3.7842 H   0  0  0  0  0  0  0  0  0  0  0  0
    6.6833    2.2768    1.4200 H   0  0  0  0  0  0  0  0  0  0  0  0
    7.5942    0.9835    2.1628 H   0  0  0  0  0  0  0  0  0  0  0  0
    5.9360   -0.6272    1.5063 H   0  0  0  0  0  0  0  0  0  0  0  0
    6.4422    0.2803    0.1013 H   0  0  0  0  0  0  0  0  0  0  0  0
    3.9981   -0.0790    0.1884 H   0  0  0  0  0  0  0  0  0  0  0  0
    4.4367    1.6127    0.1800 H   0  0  0  0  0  0  0  0  0  0  0  0
   -1.3280   -0.6624    1.1933 H   0  0  0  0  0  0  0  0  0  0  0  0
   -0.3860   -1.7997    0.2589 H   0  0  0  0  0  0  0  0  0  0  0  0
   -2.0711   -2.0657   -1.3508 H   0  0  0  0  0  0  0  0  0  0  0  0
   -3.0735   -1.7226    0.0390 H   0  0  0  0  0  0  0  0  0  0  0  0
   -5.1638   -1.2602   -0.8969 H   0  0  0  0  0  0  0  0  0  0  0  0
   -6.8180   -0.3821   -2.3019 H   0  0  0  0  0  0  0  0  0  0  0  0
   -5.6907   -0.0824   -3.6032 H   0  0  0  0  0  0  0  0  0  0  0  0
   -6.2671   -4.0594   -4.0198 H   0  0  0  0  0  0  0  0  0  0  0  0
   -6.5525   -3.7990   -2.3154 H   0  0  0  0  0  0  0  0  0  0  0  0
   -3.9711   -3.7439   -3.8158 H   0  0  0  0  0  0  0  0  0  0  0  0
   -4.2783   -4.2707   -2.1780 H   0  0  0  0  0  0  0  0  0  0  0  0
  1  2  1  0  0  0  0
  1 26  1  0  0  0  0
  1 27  1  0  0  0  0
  1 28  1  0  0  0  0
  2  3  1  0  0  0  0
  2 20  1  0  0  0  0
  2 29  1  6  0  0  0
  3 19  1  0  0  0  0
  3 12  1  0  0  0  0
  3 30  1  6  0  0  0
  4 19  1  0  0  0  0
  4  5  1  0  0  0  0
  4 21  2  0  0  0  0
  5  6  1  0  0  0  0
  5 32  1  0  0  0  0
  5 33  1  0  0  0  0
  6 22  1  0  0  0  0
  6  7  1  0  0  0  0
  6 11  1  0  0  0  0
  7  8  1  0  0  0  0
  7 35  1  0  0  0  0
  7 36  1  0  0  0  0
  8  9  1  0  0  0  0
  8 37  1  0  0  0  0
  8 38  1  0  0  0  0
  9 10  1  0  0  0  0
  9 39  1  0  0  0  0
  9 40  1  0  0  0  0
 10 11  1  0  0  0  0
 10 41  1  0  0  0  0
 10 42  1  0  0  0  0
 11 43  1  0  0  0  0
 11 44  1  0  0  0  0
 12 13  1  0  0  0  0
 12 45  1  0  0  0  0
 12 46  1  0  0  0  0
 13 20  1  0  0  0  0
 13 47  1  0  0  0  0
 13 48  1  0  0  0  0
 14 20  1  0  0  0  0
 14 15  1  0  0  0  0
 14 23  2  0  0  0  0
 15 16  1  0  0  0  0
 15 25  1  0  0  0  0
 15 49  1  1  0  0  0
 16 24  1  0  0  0  0
 16 50  1  0  0  0  0
 16 51  1  0  0  0  0
 17 24  1  0  0  0  0
 17 18  1  0  0  0  0
 17 52  1  0  0  0  0
 17 53  1  0  0  0  0
 18 25  1  0  0  0  0
 18 54  1  0  0  0  0
 18 55  1  0  0  0  0
 19 31  1  0  0  0  0
 22 34  1  0  0  0  0
M  END
>  <score>
0.45014411211013794

$$$$
PV-003547385188
 OpenBabel08202115463D

 47 48  0  0  0  0  0  0  0  0999 V2000
    6.8363    0.9364    2.0952 C   0  0  0  0  0  0  0  0  0  0  0  0
    5.7706    1.5212    3.0077 C   0  0  0  0  0  0  0  0  0  0  0  0
    6.1889    2.8881    3.5244 C   0  0  0  0  0  0  0  0  0  0  0  0
    5.4213    0.5519    4.1253 C   0  0  0  0  0  0  0  0  0  0  0  0
    3.4065    1.9668    2.5398 C   0  0  0  0  0  0  0  0  0  0  0  0
    2.4101    1.9791    1.4503 C   0  0  0  0  0  0  0  0  0  0  0  0
    2.5712    1.8878    0.1130 C   0  0  0  0  0  0  0  0  0  0  0  0
    0.4626    2.0774    0.5951 C   0  0  0  0  0  0  0  0  0  0  0  0
   -1.0008    2.1701    0.2815 C   0  0  0  0  0  0  0  0  0  0  0  0
   -2.7073    0.7823   -0.5965 C   0  0  0  0  0  0  0  0  0  0  0  0
   -2.9777   -0.3971   -1.4473 C   0  0  0  0  0  0  0  0  0  0  0  0
   -5.2124   -2.6487   -2.8989 C   0  0  0  0  0  0  0  0  0  0  0  0
   -6.2977   -2.7339   -1.8381 C   0  0  0  0  0  0  0  0  0  0  0  0
   -4.7484   -4.0508   -3.2584 C   0  0  0  0  0  0  0  0  0  0  0  0
   -5.7524   -1.9669   -4.1454 C   0  0  0  0  0  0  0  0  0  0  0  0
   -2.7121   -2.0195   -2.7156 C   0  0  0  0  0  0  0  0  0  0  0  0
    4.6307    1.6613    2.0945 O   0  0  0  0  0  0  0  0  0  0  0  0
    3.1591    2.2020    3.6943 O   0  0  0  0  0  0  0  0  0  0  0  0
    1.3149    1.9504   -0.4560 O   0  0  0  0  0  0  0  0  0  0  0  0
   -1.3966    0.9770   -0.4139 O   0  0  0  0  0  0  0  0  0  0  0  0
   -3.5568    1.4898   -0.1199 O   0  0  0  0  0  0  0  0  0  0  0  0
   -4.2062   -0.8569   -1.5959 N   0  0  0  0  0  0  0  0  0  0  0  0
   -4.0062   -1.9164   -2.4240 N   0  0  0  0  0  0  0  0  0  0  0  0
   -2.0216   -1.0691   -2.1129 N   0  0  0  0  0  0  0  0  0  0  0  0
    1.0647    2.1001    1.7519 N   0  0  0  0  0  0  0  0  0  0  0  0
    7.7774    0.9287    2.6043 H   0  0  0  0  0  0  0  0  0  0  0  0
    6.9145    1.5330    1.2105 H   0  0  0  0  0  0  0  0  0  0  0  0
    6.5672   -0.0643    1.8286 H   0  0  0  0  0  0  0  0  0  0  0  0
    6.2235    3.5822    2.7108 H   0  0  0  0  0  0  0  0  0  0  0  0
    7.1572    2.8180    3.9744 H   0  0  0  0  0  0  0  0  0  0  0  0
    5.4807    3.2263    4.2516 H   0  0  0  0  0  0  0  0  0  0  0  0
    4.9424   -0.3114    3.7126 H   0  0  0  0  0  0  0  0  0  0  0  0
    4.7601    1.0295    4.8177 H   0  0  0  0  0  0  0  0  0  0  0  0
    6.3157    0.2551    4.6321 H   0  0  0  0  0  0  0  0  0  0  0  0
    3.4737    1.7888   -0.3942 H   0  0  0  0  0  0  0  0  0  0  0  0
   -1.1838    3.0246   -0.3359 H   0  0  0  0  0  0  0  0  0  0  0  0
   -1.5591    2.2597    1.1899 H   0  0  0  0  0  0  0  0  0  0  0  0
   -5.9634   -3.3560   -1.0342 H   0  0  0  0  0  0  0  0  0  0  0  0
   -7.1839   -3.1521   -2.2676 H   0  0  0  0  0  0  0  0  0  0  0  0
   -6.5097   -1.7535   -1.4655 H   0  0  0  0  0  0  0  0  0  0  0  0
   -4.1405   -3.9867   -4.1366 H   0  0  0  0  0  0  0  0  0  0  0  0
   -5.5963   -4.6749   -3.4496 H   0  0  0  0  0  0  0  0  0  0  0  0
   -4.1774   -4.4613   -2.4519 H   0  0  0  0  0  0  0  0  0  0  0  0
   -6.0333   -0.9618   -3.9094 H   0  0  0  0  0  0  0  0  0  0  0  0
   -6.6079   -2.5017   -4.5019 H   0  0  0  0  0  0  0  0  0  0  0  0
   -4.9962   -1.9572   -4.9023 H   0  0  0  0  0  0  0  0  0  0  0  0
   -2.3010   -2.7483   -3.3333 H   0  0  0  0  0  0  0  0  0  0  0  0
  1  2  1  0  0  0  0
  1 26  1  0  0  0  0
  1 27  1  0  0  0  0
  1 28  1  0  0  0  0
  2  3  1  0  0  0  0
  2  4  1  0  0  0  0
  2 17  1  0  0  0  0
  3 29  1  0  0  0  0
  3 30  1  0  0  0  0
  3 31  1  0  0  0  0
  4 32  1  0  0  0  0
  4 33  1  0  0  0  0
  4 34  1  0  0  0  0
  5 17  1  0  0  0  0
  5  6  1  0  0  0  0
  5 18  2  0  0  0  0
  6 25  1  0  0  0  0
  6  7  2  0  0  0  0
  7 19  1  0  0  0  0
  7 35  1  0  0  0  0
  8 19  1  0  0  0  0
  8  9  1  0  0  0  0
  8 25  2  0  0  0  0
  9 20  1  0  0  0  0
  9 36  1  0  0  0  0
  9 37  1  0  0  0  0
 10 20  1  0  0  0  0
 10 11  1  0  0  0  0
 10 21  2  0  0  0  0
 11 24  1  0  0  0  0
 11 22  2  0  0  0  0
 12 23  1  0  0  0  0
 12 13  1  0  0  0  0
 12 14  1  0  0  0  0
 12 15  1  0  0  0  0
 13 38  1  0  0  0  0
 13 39  1  0  0  0  0
 13 40  1  0  0  0  0
 14 41  1  0  0  0  0
 14 42  1  0  0  0  0
 14 43  1  0  0  0  0
 15 44  1  0  0  0  0
 15 45  1  0  0  0  0
 15 46  1  0  0  0  0
 16 23  1  0  0  0  0
 16 47  1  0  0  0  0
 16 24  2  0  0  0  0
 22 23  1  0  0  0  0
M  END
>  <score>
0.45014923810958862

$$$$
PV-003071851168
 OpenBabel08202115463D

 55 56  0  0  0  0  0  0  0  0999 V2000
    6.1641    2.7071    4.2667 C   0  0  0  0  0  0  0  0  0  0  0  0
    6.0949    1.6848    3.1587 C   0  0  0  0  0  0  0  0  0  0  0  0
    4.3486    0.1420    3.9877 C   0  0  0  0  0  0  0  0  0  0  0  0
    4.8001   -0.9535    2.9931 C   0  0  0  0  0  0  0  0  0  0  0  0
    4.6376    0.1261    1.9017 C   0  0  1  0  0  0  0  0  0  0  0  0
    3.3018    0.0992    1.1819 C   0  0  0  0  0  0  0  0  0  0  0  0
    1.0428    0.9725    1.0548 C   0  0  0  0  0  0  0  0  0  0  0  0
    0.8967    2.0276   -0.0308 C   0  0  0  0  0  0  0  0  0  0  0  0
   -0.5252    2.0573   -0.5650 C   0  0  1  0  0  0  0  0  0  0  0  0
   -0.6452    2.9879   -1.7615 C   0  0  0  0  0  0  0  0  0  0  0  0
   -1.0113    0.6668   -0.8910 C   0  0  0  0  0  0  0  0  0  0  0  0
   -2.4141    0.5827   -1.4623 C   0  0  0  0  0  0  0  0  0  0  0  0
   -3.9647   -1.0736   -2.3952 C   0  0  0  0  0  0  0  0  0  0  0  0
   -4.1280   -2.4619   -2.9535 C   0  0  0  0  0  0  0  0  0  0  0  0
   -5.5277   -2.7304   -3.4818 C   0  0  1  0  0  0  0  0  0  0  0  0
   -5.7529   -4.1934   -3.7291 C   0  0  0  0  0  0  0  0  0  0  0  0
   -7.2798   -3.5705   -2.1568 C   0  0  0  0  0  0  0  0  0  0  0  0
    4.7401    1.1473    2.9739 N   0  0  0  0  0  0  0  0  0  0  0  0
    2.3749    0.9551    1.6406 N   0  0  0  0  0  0  0  0  0  0  0  0
   -2.7582   -0.7682   -1.9095 N   0  0  0  0  0  0  0  0  0  0  0  0
   -6.5470   -2.4619   -2.4661 N   0  0  0  0  0  0  0  0  0  0  0  0
    3.1012   -0.6593    0.2473 O   0  0  0  0  0  0  0  0  0  0  0  0
   -4.9201   -0.3022   -2.3221 O   0  0  0  0  0  0  0  0  0  0  0  0
   -6.8210   -4.6134   -2.8753 O   0  0  0  0  0  0  0  0  0  0  0  0
   -8.1894   -3.6102   -1.3690 O   0  0  0  0  0  0  0  0  0  0  0  0
    7.1501    3.1205    4.3102 H   0  0  0  0  0  0  0  0  0  0  0  0
    5.9331    2.2374    5.1999 H   0  0  0  0  0  0  0  0  0  0  0  0
    5.4583    3.4882    4.0755 H   0  0  0  0  0  0  0  0  0  0  0  0
    6.7553    0.8768    3.3954 H   0  0  0  0  0  0  0  0  0  0  0  0
    6.4084    2.1465    2.2457 H   0  0  0  0  0  0  0  0  0  0  0  0
    3.3042    0.1284    4.2200 H   0  0  0  0  0  0  0  0  0  0  0  0
    4.9157    0.1805    4.8942 H   0  0  0  0  0  0  0  0  0  0  0  0
    5.8001   -1.3072    3.1336 H   0  0  0  0  0  0  0  0  0  0  0  0
    4.1352   -1.7873    2.9065 H   0  0  0  0  0  0  0  0  0  0  0  0
    5.4300    0.1548    1.1832 H   0  0  0  0  0  0  0  0  0  0  0  0
    2.5957    1.5695    2.3715 H   0  0  0  0  0  0  0  0  0  0  0  0
    0.3310    1.1750    1.8277 H   0  0  0  0  0  0  0  0  0  0  0  0
    0.8432    0.0117    0.6283 H   0  0  0  0  0  0  0  0  0  0  0  0
    1.5681    1.8013   -0.8327 H   0  0  0  0  0  0  0  0  0  0  0  0
    1.1382    2.9868    0.3773 H   0  0  0  0  0  0  0  0  0  0  0  0
   -1.1536    2.4445    0.2096 H   0  0  0  0  0  0  0  0  0  0  0  0
    0.0254    2.6680   -2.5315 H   0  0  0  0  0  0  0  0  0  0  0  0
   -0.3966    3.9851   -1.4638 H   0  0  0  0  0  0  0  0  0  0  0  0
   -1.6491    2.9653   -2.1313 H   0  0  0  0  0  0  0  0  0  0  0  0
   -0.9871    0.0897    0.0097 H   0  0  0  0  0  0  0  0  0  0  0  0
   -0.3382    0.2416   -1.6058 H   0  0  0  0  0  0  0  0  0  0  0  0
   -2.4848    1.2485   -2.2970 H   0  0  0  0  0  0  0  0  0  0  0  0
   -3.1104    0.8816   -0.7069 H   0  0  0  0  0  0  0  0  0  0  0  0
   -2.0798   -1.4731   -1.8505 H   0  0  0  0  0  0  0  0  0  0  0  0
   -3.9154   -3.1680   -2.1782 H   0  0  0  0  0  0  0  0  0  0  0  0
   -3.4310   -2.5908   -3.7550 H   0  0  0  0  0  0  0  0  0  0  0  0
   -5.6925   -2.1520   -4.3668 H   0  0  0  0  0  0  0  0  0  0  0  0
   -4.8642   -4.7437   -3.5001 H   0  0  0  0  0  0  0  0  0  0  0  0
   -6.0187   -4.3543   -4.7530 H   0  0  0  0  0  0  0  0  0  0  0  0
   -6.6873   -1.5839   -2.0541 H   0  0  0  0  0  0  0  0  0  0  0  0
  1  2  1  0  0  0  0
  1 26  1  0  0  0  0
  1 27  1  0  0  0  0
  1 28  1  0  0  0  0
  2 18  1  0  0  0  0
  2 29  1  0  0  0  0
  2 30  1  0  0  0  0
  3 18  1  0  0  0  0
  3  4  1  0  0  0  0
  3 31  1  0  0  0  0
  3 32  1  0  0  0  0
  4  5  1  0  0  0  0
  4 33  1  0  0  0  0
  4 34  1  0  0  0  0
  5 18  1  0  0  0  0
  5  6  1  0  0  0  0
  5 35  1  6  0  0  0
  6 19  1  0  0  0  0
  6 22  2  0  0  0  0
  7 19  1  0  0  0  0
  7  8  1  0  0  0  0
  7 37  1  0  0  0  0
  7 38  1  0  0  0  0
  8  9  1  0  0  0  0
  8 39  1  0  0  0  0
  8 40  1  0  0  0  0
  9 10  1  0  0  0  0
  9 11  1  0  0  0  0
  9 41  1  1  0  0  0
 10 42  1  0  0  0  0
 10 43  1  0  0  0  0
 10 44  1  0  0  0  0
 11 12  1  0  0  0  0
 11 45  1  0  0  0  0
 11 46  1  0  0  0  0
 12 20  1  0  0  0  0
 12 47  1  0  0  0  0
 12 48  1  0  0  0  0
 13 20  1  0  0  0  0
 13 14  1  0  0  0  0
 13 23  2  0  0  0  0
 14 15  1  0  0  0  0
 14 50  1  0  0  0  0
 14 51  1  0  0  0  0
 15 16  1  0  0  0  0
 15 21  1  0  0  0  0
 15 52  1  6  0  0  0
 16 24  1  0  0  0  0
 16 53  1  0  0  0  0
 16 54  1  0  0  0  0
 17 24  1  0  0  0  0
 17 21  1  0  0  0  0
 17 25  2  0  0  0  0
 19 36  1  0  0  0  0
 20 49  1  0  0  0  0
 21 55  1  0  0  0  0
M  END
>  <score>
0.45024240016937256

$$$$
PV-003502639794
 OpenBabel08202115463D

 46 48  0  0  0  0  0  0  0  0999 V2000
   -7.0812   -4.2777   -4.0635 C   0  0  0  0  0  0  0  0  0  0  0  0
   -5.2698   -3.3201   -2.7158 C   0  0  0  0  0  0  0  0  0  0  0  0
   -5.3238   -2.1636   -3.4690 C   0  0  0  0  0  0  0  0  0  0  0  0
   -4.4812   -1.1176   -3.1409 C   0  0  0  0  0  0  0  0  0  0  0  0
   -3.6207   -1.2680   -2.0701 C   0  0  0  0  0  0  0  0  0  0  0  0
   -2.6666   -0.2098   -1.6169 C   0  0  0  0  0  0  0  0  0  0  0  0
   -0.9818    0.4549    0.0262 C   0  0  0  0  0  0  0  0  0  0  0  0
   -0.0323   -0.1967    1.0307 C   0  0  1  0  0  0  0  0  0  0  0  0
    1.3147   -0.7280    0.6404 C   0  0  0  0  0  0  0  0  0  0  0  0
    1.2101    0.4382    1.5723 C   0  0  1  0  0  0  0  0  0  0  0  0
    1.6489    1.8326    1.1881 C   0  0  0  0  0  0  0  0  0  0  0  0
    3.6142    2.5180    2.5063 C   0  0  0  0  0  0  0  0  0  0  0  0
    5.1250    2.5209    2.6119 C   0  0  0  0  0  0  0  0  0  0  0  0
    5.6149    1.1214    2.8044 C   0  0  0  0  0  0  0  0  0  0  0  0
    5.8928    3.6146    3.2924 C   0  0  0  0  0  0  0  0  0  0  0  0
    5.9838    3.4459    1.8081 C   0  0  0  0  0  0  0  0  0  0  0  0
   -4.3750   -3.3868   -1.6621 C   0  0  0  0  0  0  0  0  0  0  0  0
   -6.1654   -4.3608   -2.9469 O   0  0  0  0  0  0  0  0  0  0  0  0
   -2.5739    0.8560   -2.2231 O   0  0  0  0  0  0  0  0  0  0  0  0
    2.8701    2.9166    3.3833 O   0  0  0  0  0  0  0  0  0  0  0  0
   -1.9363   -0.4902   -0.5339 N   0  0  0  0  0  0  0  0  0  0  0  0
    3.0933    2.0256    1.3290 N   0  0  0  0  0  0  0  0  0  0  0  0
   -3.5556   -2.3791   -1.3302 N   0  0  0  0  0  0  0  0  0  0  0  0
    6.9536    1.1082    2.9755 F   0  0  0  0  0  0  0  0  0  0  0  0
    5.4096    0.4154    1.6867 F   0  0  0  0  0  0  0  0  0  0  0  0
   -7.6665   -3.3858   -3.9798 H   0  0  0  0  0  0  0  0  0  0  0  0
   -7.7279   -5.1301   -4.0584 H   0  0  0  0  0  0  0  0  0  0  0  0
   -6.5267   -4.2555   -4.9784 H   0  0  0  0  0  0  0  0  0  0  0  0
   -5.9852   -2.0811   -4.2672 H   0  0  0  0  0  0  0  0  0  0  0  0
   -4.4947   -0.2343   -3.6897 H   0  0  0  0  0  0  0  0  0  0  0  0
   -2.0472   -1.3626   -0.1015 H   0  0  0  0  0  0  0  0  0  0  0  0
   -1.5218    1.2349    0.5211 H   0  0  0  0  0  0  0  0  0  0  0  0
   -0.4035    0.8717   -0.7717 H   0  0  0  0  0  0  0  0  0  0  0  0
   -0.5400   -0.8121    1.7438 H   0  0  0  0  0  0  0  0  0  0  0  0
    1.6777   -0.5857   -0.3560 H   0  0  0  0  0  0  0  0  0  0  0  0
    1.6417   -1.6784    1.0074 H   0  0  0  0  0  0  0  0  0  0  0  0
    1.4109    0.1961    2.5950 H   0  0  0  0  0  0  0  0  0  0  0  0
    1.1460    2.5361    1.8182 H   0  0  0  0  0  0  0  0  0  0  0  0
    1.3774    2.0088    0.1682 H   0  0  0  0  0  0  0  0  0  0  0  0
    3.6911    1.8041    0.5847 H   0  0  0  0  0  0  0  0  0  0  0  0
    5.1115    0.6854    3.6418 H   0  0  0  0  0  0  0  0  0  0  0  0
    6.7323    3.3741    3.9107 H   0  0  0  0  0  0  0  0  0  0  0  0
    5.3750    4.4554    3.7045 H   0  0  0  0  0  0  0  0  0  0  0  0
    5.5316    4.1668    1.1595 H   0  0  0  0  0  0  0  0  0  0  0  0
    6.8890    3.0855    1.3657 H   0  0  0  0  0  0  0  0  0  0  0  0
   -4.3365   -4.2613   -1.1005 H   0  0  0  0  0  0  0  0  0  0  0  0
  1 18  1  0  0  0  0
  1 26  1  0  0  0  0
  1 27  1  0  0  0  0
  1 28  1  0  0  0  0
  2 18  1  0  0  0  0
  2 17  1  0  0  0  0
  2  3  2  0  0  0  0
  3  4  1  0  0  0  0
  3 29  1  0  0  0  0
  4 30  1  0  0  0  0
  4  5  2  0  0  0  0
  5  6  1  0  0  0  0
  5 23  1  0  0  0  0
  6 21  1  0  0  0  0
  6 19  2  0  0  0  0
  7 21  1  0  0  0  0
  7  8  1  0  0  0  0
  7 32  1  0  0  0  0
  7 33  1  0  0  0  0
  8  9  1  0  0  0  0
  8 10  1  0  0  0  0
  8 34  1  1  0  0  0
  9 10  1  0  0  0  0
  9 35  1  0  0  0  0
  9 36  1  0  0  0  0
 10 11  1  0  0  0  0
 10 37  1  1  0  0  0
 11 22  1  0  0  0  0
 11 38  1  0  0  0  0
 11 39  1  0  0  0  0
 12 22  1  0  0  0  0
 12 13  1  0  0  0  0
 12 20  2  0  0  0  0
 13 14  1  0  0  0  0
 13 15  1  0  0  0  0
 13 16  1  0  0  0  0
 14 24  1  0  0  0  0
 14 25  1  0  0  0  0
 14 41  1  0  0  0  0
 15 16  1  0  0  0  0
 15 42  1  0  0  0  0
 15 43  1  0  0  0  0
 16 44  1  0  0  0  0
 16 45  1  0  0  0  0
 17 46  1  0  0  0  0
 17 23  2  0  0  0  0
 21 31  1  0  0  0  0
 22 40  1  0  0  0  0
M  END
>  <score>
0.45025396347045898

$$$$
PV-002760607981
 OpenBabel08202115463D

 46 47  0  0  0  0  0  0  0  0999 V2000
    1.5757   -0.8178    1.2759 C   0  0  0  0  0  0  0  0  0  0  0  0
    2.7747    1.1783    0.7449 C   0  0  1  0  0  0  0  0  0  0  0  0
    4.2367    1.5592    0.8764 C   0  0  0  0  0  0  0  0  0  0  0  0
    4.7951    1.0986    2.2121 C   0  0  0  0  0  0  0  0  0  0  0  0
    4.0458    1.6888    3.3955 C   0  0  0  0  0  0  0  0  0  0  0  0
    6.2763    1.4289    2.2976 C   0  0  0  0  0  0  0  0  0  0  0  0
    2.1320    1.8372   -0.4631 C   0  0  0  0  0  0  0  0  0  0  0  0
    0.0902    0.4314   -1.0143 C   0  0  0  0  0  0  0  0  0  0  0  0
   -1.2517    0.6918   -0.8882 C   0  0  0  0  0  0  0  0  0  0  0  0
   -2.4471   -0.1295   -1.2012 C   0  0  0  0  0  0  0  0  0  0  0  0
   -2.3254   -1.3891   -1.7520 C   0  0  0  0  0  0  0  0  0  0  0  0
   -4.5782   -1.6190   -1.7631 C   0  0  0  0  0  0  0  0  0  0  0  0
   -7.0062   -1.9561   -1.6939 C   0  0  0  0  0  0  0  0  0  0  0  0
   -5.5517   -3.6038   -2.8188 C   0  0  0  0  0  0  0  0  0  0  0  0
   -3.7315    0.3202   -0.9596 C   0  0  0  0  0  0  0  0  0  0  0  0
    2.6811   -0.2390    0.5919 O   0  0  0  0  0  0  0  0  0  0  0  0
    0.7070    1.5427   -0.5691 N   0  0  0  0  0  0  0  0  0  0  0  0
   -3.3876   -2.1553   -2.0409 N   0  0  0  0  0  0  0  0  0  0  0  0
   -5.6557   -2.3724   -2.0475 N   0  0  0  0  0  0  0  0  0  0  0  0
   -4.8190   -0.4192   -1.2349 N   0  0  0  0  0  0  0  0  0  0  0  0
   -1.3843    1.9515   -0.3774 N   0  0  0  0  0  0  0  0  0  0  0  0
   -0.1971    2.4675   -0.1852 N   0  0  0  0  0  0  0  0  0  0  0  0
    1.7694   -0.8222    2.3282 H   0  0  0  0  0  0  0  0  0  0  0  0
    1.4323   -1.8221    0.9357 H   0  0  0  0  0  0  0  0  0  0  0  0
    0.6943   -0.2444    1.0781 H   0  0  0  0  0  0  0  0  0  0  0  0
    2.2544    1.4888    1.6268 H   0  0  0  0  0  0  0  0  0  0  0  0
    4.3300    2.6227    0.8051 H   0  0  0  0  0  0  0  0  0  0  0  0
    4.7918    1.0982    0.0864 H   0  0  0  0  0  0  0  0  0  0  0  0
    4.6943    0.0344    2.2593 H   0  0  0  0  0  0  0  0  0  0  0  0
    4.5412    1.4163    4.3039 H   0  0  0  0  0  0  0  0  0  0  0  0
    3.0449    1.3107    3.4082 H   0  0  0  0  0  0  0  0  0  0  0  0
    4.0237    2.7550    3.3076 H   0  0  0  0  0  0  0  0  0  0  0  0
    6.7683    0.8508    1.5435 H   0  0  0  0  0  0  0  0  0  0  0  0
    6.6554    1.1709    3.2643 H   0  0  0  0  0  0  0  0  0  0  0  0
    6.4311    2.4726    2.1201 H   0  0  0  0  0  0  0  0  0  0  0  0
    2.6216    1.4848   -1.3468 H   0  0  0  0  0  0  0  0  0  0  0  0
    2.2581    2.8968   -0.3832 H   0  0  0  0  0  0  0  0  0  0  0  0
    0.5345   -0.4367   -1.3756 H   0  0  0  0  0  0  0  0  0  0  0  0
   -1.3736   -1.7583   -1.9507 H   0  0  0  0  0  0  0  0  0  0  0  0
   -6.9863   -1.4359   -0.7591 H   0  0  0  0  0  0  0  0  0  0  0  0
   -7.6341   -2.8182   -1.6088 H   0  0  0  0  0  0  0  0  0  0  0  0
   -7.3900   -1.3083   -2.4541 H   0  0  0  0  0  0  0  0  0  0  0  0
   -4.5976   -4.0555   -2.6438 H   0  0  0  0  0  0  0  0  0  0  0  0
   -5.6552   -3.3818   -3.8604 H   0  0  0  0  0  0  0  0  0  0  0  0
   -6.3259   -4.2787   -2.5189 H   0  0  0  0  0  0  0  0  0  0  0  0
   -3.8611    1.2670   -0.5491 H   0  0  0  0  0  0  0  0  0  0  0  0
  1 16  1  0  0  0  0
  1 23  1  0  0  0  0
  1 24  1  0  0  0  0
  1 25  1  0  0  0  0
  2 16  1  0  0  0  0
  2  3  1  0  0  0  0
  2  7  1  0  0  0  0
  2 26  1  1  0  0  0
  3  4  1  0  0  0  0
  3 27  1  0  0  0  0
  3 28  1  0  0  0  0
  4  5  1  0  0  0  0
  4  6  1  0  0  0  0
  4 29  1  0  0  0  0
  5 30  1  0  0  0  0
  5 31  1  0  0  0  0
  5 32  1  0  0  0  0
  6 33  1  0  0  0  0
  6 34  1  0  0  0  0
  6 35  1  0  0  0  0
  7 17  1  0  0  0  0
  7 36  1  0  0  0  0
  7 37  1  0  0  0  0
  8 17  1  0  0  0  0
  8 38  1  0  0  0  0
  8  9  2  0  0  0  0
  9 10  1  0  0  0  0
  9 21  1  0  0  0  0
 10 15  1  0  0  0  0
 10 11  2  0  0  0  0
 11 18  1  0  0  0  0
 11 39  1  0  0  0  0
 12 19  1  0  0  0  0
 12 20  1  0  0  0  0
 12 18  2  0  0  0  0
 13 19  1  0  0  0  0
 13 40  1  0  0  0  0
 13 41  1  0  0  0  0
 13 42  1  0  0  0  0
 14 19  1  0  0  0  0
 14 43  1  0  0  0  0
 14 44  1  0  0  0  0
 14 45  1  0  0  0  0
 15 46  1  0  0  0  0
 15 20  2  0  0  0  0
 17 22  1  0  0  0  0
 21 22  2  0  0  0  0
M  END
>  <score>
0.45031058788299561

$$$$
PV-002810605943
 OpenBabel08202115463D

 48 48  0  0  0  0  0  0  0  0999 V2000
    5.0205    0.0245    2.7954 C   0  0  0  0  0  0  0  0  0  0  0  0
    4.5477    1.4247    2.3641 C   0  0  0  0  0  0  0  0  0  0  0  0
    5.7272    2.3556    2.0330 C   0  0  0  0  0  0  0  0  0  0  0  0
    3.5356    1.3588    1.2367 C   0  0  0  0  0  0  0  0  0  0  0  0
    2.3084    0.5286    1.5763 C   0  0  0  0  0  0  0  0  0  0  0  0
    1.3631    0.3584    0.4030 C   0  0  0  0  0  0  0  0  0  0  0  0
   -0.9520   -0.2051   -0.3250 C   0  0  2  0  0  0  0  0  0  0  0  0
   -0.3926   -1.1959   -1.3382 C   0  0  0  0  0  0  0  0  0  0  0  0
   -2.1430   -0.8475    0.3485 C   0  0  0  0  0  0  0  0  0  0  0  0
   -3.0275   -2.5337   -1.1843 C   0  0  0  0  0  0  0  0  0  0  0  0
   -4.1922   -2.9213   -2.0504 C   0  0  0  0  0  0  0  0  0  0  0  0
   -6.2177   -2.0385   -2.9086 C   0  0  0  0  0  0  0  0  0  0  0  0
   -1.3778    1.0991   -0.9874 C   0  0  0  0  0  0  0  0  0  0  0  0
   -0.3939    2.2140   -1.1823 C   0  0  0  0  0  0  0  0  0  0  0  0
   -1.4921    2.3503   -0.1746 C   0  0  0  0  0  0  0  0  0  0  0  0
    3.8922    1.9797    3.4564 F   0  0  0  0  0  0  0  0  0  0  0  0
   -5.9395   -3.0106   -3.8180 F   0  0  0  0  0  0  0  0  0  0  0  0
   -6.5821   -0.9495   -3.6373 F   0  0  0  0  0  0  0  0  0  0  0  0
    1.7611    0.4561   -0.7570 O   0  0  0  0  0  0  0  0  0  0  0  0
   -2.0996   -3.3159   -0.9827 O   0  0  0  0  0  0  0  0  0  0  0  0
   -5.0233   -1.7802   -2.2052 O   0  0  0  0  0  0  0  0  0  0  0  0
    0.0842    0.0984    0.7175 N   0  0  0  0  0  0  0  0  0  0  0  0
   -3.1274   -1.3340   -0.6047 N   0  0  0  0  0  0  0  0  0  0  0  0
    5.4462   -0.4832    1.9553 H   0  0  0  0  0  0  0  0  0  0  0  0
    4.1867   -0.5350    3.1650 H   0  0  0  0  0  0  0  0  0  0  0  0
    5.7572    0.1187    3.5657 H   0  0  0  0  0  0  0  0  0  0  0  0
    5.3607    3.3429    1.8437 H   0  0  0  0  0  0  0  0  0  0  0  0
    6.2357    1.9915    1.1647 H   0  0  0  0  0  0  0  0  0  0  0  0
    6.4054    2.3796    2.8602 H   0  0  0  0  0  0  0  0  0  0  0  0
    4.0099    0.9282    0.3796 H   0  0  0  0  0  0  0  0  0  0  0  0
    3.2185    2.3545    1.0068 H   0  0  0  0  0  0  0  0  0  0  0  0
    1.7803    1.0111    2.3720 H   0  0  0  0  0  0  0  0  0  0  0  0
    2.6307   -0.4400    1.8972 H   0  0  0  0  0  0  0  0  0  0  0  0
   -0.1821    0.1070    1.6606 H   0  0  0  0  0  0  0  0  0  0  0  0
   -0.1327   -2.1070   -0.8408 H   0  0  0  0  0  0  0  0  0  0  0  0
    0.4790   -0.7804   -1.7992 H   0  0  0  0  0  0  0  0  0  0  0  0
   -1.1312   -1.3962   -2.0860 H   0  0  0  0  0  0  0  0  0  0  0  0
   -2.6093   -0.1238    0.9838 H   0  0  0  0  0  0  0  0  0  0  0  0
   -1.8000   -1.6720    0.9381 H   0  0  0  0  0  0  0  0  0  0  0  0
   -3.8906   -0.7621   -0.8299 H   0  0  0  0  0  0  0  0  0  0  0  0
   -4.7435   -3.7114   -1.5850 H   0  0  0  0  0  0  0  0  0  0  0  0
   -3.8405   -3.2465   -3.0072 H   0  0  0  0  0  0  0  0  0  0  0  0
   -6.9947   -2.3396   -2.2375 H   0  0  0  0  0  0  0  0  0  0  0  0
   -2.1048    0.9912   -1.7650 H   0  0  0  0  0  0  0  0  0  0  0  0
   -0.4160    2.7962   -2.0798 H   0  0  0  0  0  0  0  0  0  0  0  0
    0.6188    2.0967   -0.8574 H   0  0  0  0  0  0  0  0  0  0  0  0
   -1.2637    2.3314    0.8706 H   0  0  0  0  0  0  0  0  0  0  0  0
   -2.2985    3.0309   -0.3518 H   0  0  0  0  0  0  0  0  0  0  0  0
  1  2  1  0  0  0  0
  1 24  1  0  0  0  0
  1 25  1  0  0  0  0
  1 26  1  0  0  0  0
  2  3  1  0  0  0  0
  2 16  1  0  0  0  0
  2  4  1  0  0  0  0
  3 27  1  0  0  0  0
  3 28  1  0  0  0  0
  3 29  1  0  0  0  0
  4  5  1  0  0  0  0
  4 30  1  0  0  0  0
  4 31  1  0  0  0  0
  5  6  1  0  0  0  0
  5 32  1  0  0  0  0
  5 33  1  0  0  0  0
  6 22  1  0  0  0  0
  6 19  2  0  0  0  0
  7 22  1  1  0  0  0
  7  8  1  0  0  0  0
  7  9  1  0  0  0  0
  7 13  1  0  0  0  0
  8 35  1  0  0  0  0
  8 36  1  0  0  0  0
  8 37  1  0  0  0  0
  9 23  1  0  0  0  0
  9 38  1  0  0  0  0
  9 39  1  0  0  0  0
 10 23  1  0  0  0  0
 10 11  1  0  0  0  0
 10 20  2  0  0  0  0
 11 21  1  0  0  0  0
 11 41  1  0  0  0  0
 11 42  1  0  0  0  0
 12 21  1  0  0  0  0
 12 17  1  0  0  0  0
 12 18  1  0  0  0  0
 12 43  1  0  0  0  0
 13 14  1  0  0  0  0
 13 15  1  0  0  0  0
 13 44  1  0  0  0  0
 14 15  1  0  0  0  0
 14 45  1  0  0  0  0
 14 46  1  0  0  0  0
 15 47  1  0  0  0  0
 15 48  1  0  0  0  0
 22 34  1  0  0  0  0
 23 40  1  0  0  0  0
M  END
>  <score>
0.45033115148544312

$$$$
PV-003567560360
 OpenBabel08202115463D

 41 43  0  0  0  0  0  0  0  0999 V2000
    6.4712    0.1860    3.7099 C   0  0  0  0  0  0  0  0  0  0  0  0
    5.0799    0.3699    4.2936 C   0  0  0  0  0  0  0  0  0  0  0  0
    4.1512    1.1223    3.3785 C   0  0  0  0  0  0  0  0  0  0  0  0
    3.3175    0.4737    2.4871 C   0  0  0  0  0  0  0  0  0  0  0  0
    2.5158    1.2716    1.6961 C   0  0  0  0  0  0  0  0  0  0  0  0
    1.5619    0.7502    0.6793 C   0  0  0  0  0  0  0  0  0  0  0  0
   -0.2362    1.1360   -0.9080 C   0  0  0  0  0  0  0  0  0  0  0  0
   -1.5953    0.9294   -0.2884 C   0  0  0  0  0  0  0  0  0  0  0  0
   -2.7888   -1.0002   -1.4259 C   0  0  0  0  0  0  0  0  0  0  0  0
   -3.7710   -1.0206   -2.3845 C   0  0  0  0  0  0  0  0  0  0  0  0
   -4.4755   -2.2311   -3.0424 C   0  0  0  0  0  0  0  0  0  0  0  0
   -4.3370   -2.2833   -4.5657 C   0  0  0  0  0  0  0  0  0  0  0  0
   -5.9903   -2.0690   -3.1894 C   0  0  0  0  0  0  0  0  0  0  0  0
    3.3701    3.1266    2.6744 C   0  0  0  0  0  0  0  0  0  0  0  0
    1.5566   -0.4475    0.3809 O   0  0  0  0  0  0  0  0  0  0  0  0
   -4.0817   -3.4234   -2.3837 O   0  0  0  0  0  0  0  0  0  0  0  0
    0.7071    1.6109    0.0934 N   0  0  0  0  0  0  0  0  0  0  0  0
   -2.5391    0.3049   -1.2067 N   0  0  0  0  0  0  0  0  0  0  0  0
   -4.0661    0.2738   -2.7048 N   0  0  0  0  0  0  0  0  0  0  0  0
   -3.3184    1.0771   -1.9917 N   0  0  0  0  0  0  0  0  0  0  0  0
    2.5273    2.6102    1.7770 N   0  0  0  0  0  0  0  0  0  0  0  0
    4.1893    2.4608    3.4882 N   0  0  0  0  0  0  0  0  0  0  0  0
   -5.9525   -3.1009   -4.6811 S   0  0  0  0  0  0  0  0  0  0  0  0
    7.0892   -0.3293    4.4151 H   0  0  0  0  0  0  0  0  0  0  0  0
    6.8973    1.1439    3.4957 H   0  0  0  0  0  0  0  0  0  0  0  0
    6.4066   -0.3859    2.8079 H   0  0  0  0  0  0  0  0  0  0  0  0
    5.1649    0.9112    5.2126 H   0  0  0  0  0  0  0  0  0  0  0  0
    4.6607   -0.5958    4.4852 H   0  0  0  0  0  0  0  0  0  0  0  0
    3.2954   -0.5636    2.4159 H   0  0  0  0  0  0  0  0  0  0  0  0
    0.7205    2.5587    0.3419 H   0  0  0  0  0  0  0  0  0  0  0  0
    0.1132    0.2081   -1.3102 H   0  0  0  0  0  0  0  0  0  0  0  0
   -0.3121    1.8595   -1.6926 H   0  0  0  0  0  0  0  0  0  0  0  0
   -1.9847    1.8807    0.0090 H   0  0  0  0  0  0  0  0  0  0  0  0
   -1.4882    0.3025    0.5720 H   0  0  0  0  0  0  0  0  0  0  0  0
   -2.3354   -1.8164   -0.9677 H   0  0  0  0  0  0  0  0  0  0  0  0
   -3.2333   -3.7138   -2.7266 H   0  0  0  0  0  0  0  0  0  0  0  0
   -3.5190   -2.8810   -4.9100 H   0  0  0  0  0  0  0  0  0  0  0  0
   -4.2991   -1.3221   -5.0343 H   0  0  0  0  0  0  0  0  0  0  0  0
   -6.3073   -1.0619   -3.3626 H   0  0  0  0  0  0  0  0  0  0  0  0
   -6.5550   -2.4875   -2.3826 H   0  0  0  0  0  0  0  0  0  0  0  0
    3.3898    4.1639    2.7465 H   0  0  0  0  0  0  0  0  0  0  0  0
  1  2  1  0  0  0  0
  1 24  1  0  0  0  0
  1 25  1  0  0  0  0
  1 26  1  0  0  0  0
  2  3  1  0  0  0  0
  2 27  1  0  0  0  0
  2 28  1  0  0  0  0
  3 22  1  0  0  0  0
  3  4  2  0  0  0  0
  4  5  1  0  0  0  0
  4 29  1  0  0  0  0
  5  6  1  0  0  0  0
  5 21  2  0  0  0  0
  6 17  1  0  0  0  0
  6 15  2  0  0  0  0
  7 17  1  0  0  0  0
  7  8  1  0  0  0  0
  7 31  1  0  0  0  0
  7 32  1  0  0  0  0
  8 18  1  0  0  0  0
  8 33  1  0  0  0  0
  8 34  1  0  0  0  0
  9 18  1  0  0  0  0
  9 35  1  0  0  0  0
  9 10  2  0  0  0  0
 10 11  1  0  0  0  0
 10 19  1  0  0  0  0
 11 16  1  0  0  0  0
 11 12  1  0  0  0  0
 11 13  1  0  0  0  0
 12 23  1  0  0  0  0
 12 37  1  0  0  0  0
 12 38  1  0  0  0  0
 13 23  1  0  0  0  0
 13 39  1  0  0  0  0
 13 40  1  0  0  0  0
 14 21  1  0  0  0  0
 14 41  1  0  0  0  0
 14 22  2  0  0  0  0
 16 36  1  0  0  0  0
 17 30  1  0  0  0  0
 18 20  1  0  0  0  0
 19 20  2  0  0  0  0
M  END
>  <score>
0.45053225755691528

$$$$
PV-004046753141
 OpenBabel08202115463D

 50 51  0  0  0  0  0  0  0  0999 V2000
    6.6289   -0.1904    3.0023 C   0  0  0  0  0  0  0  0  0  0  0  0
    6.0308    1.1637    3.3475 C   0  0  0  0  0  0  0  0  0  0  0  0
    4.6058    1.3138    2.8860 C   0  0  0  0  0  0  0  0  0  0  0  0
    2.4103    1.4796    3.5002 C   0  0  0  0  0  0  0  0  0  0  0  0
    2.0022    1.5840    2.1820 C   0  0  0  0  0  0  0  0  0  0  0  0
    0.5510    1.7331    1.8539 C   0  0  0  0  0  0  0  0  0  0  0  0
   -1.2512    1.1098    0.2780 C   0  0  0  0  0  0  0  0  0  0  0  0
   -1.3916    0.5120   -1.1124 C   0  0  1  0  0  0  0  0  0  0  0  0
   -1.3976   -1.0470   -1.1538 C   0  0  0  0  0  0  0  0  0  0  0  0
   -2.9391   -1.0471   -1.2568 C   0  0  2  0  0  0  0  0  0  0  0  0
   -3.4975   -1.9449   -2.3329 C   0  0  0  0  0  0  0  0  0  0  0  0
   -5.6113   -2.5762   -3.4017 C   0  0  0  0  0  0  0  0  0  0  0  0
   -7.0604   -2.1998   -3.6420 C   0  0  0  0  0  0  0  0  0  0  0  0
   -7.8945   -3.3267   -4.0483 C   0  0  0  0  0  0  0  0  0  0  0  0
   -2.8447    0.4571   -1.6502 C   0  0  0  0  0  0  0  0  0  0  0  0
    2.9583    1.5475    1.1859 C   0  0  0  0  0  0  0  0  0  0  0  0
    4.2862    1.4077    1.5448 C   0  0  0  0  0  0  0  0  0  0  0  0
    5.3666    1.3585    0.4904 C   0  0  0  0  0  0  0  0  0  0  0  0
    3.6943    1.3480    3.8628 N   0  0  0  0  0  0  0  0  0  0  0  0
    0.1300    1.1405    0.7355 N   0  0  0  0  0  0  0  0  0  0  0  0
   -4.9211   -1.7504   -2.6136 N   0  0  0  0  0  0  0  0  0  0  0  0
   -8.5601   -4.1945   -4.3594 N   0  0  0  0  0  0  0  0  0  0  0  0
    1.4858    1.5111    4.4545 O   0  0  0  0  0  0  0  0  0  0  0  0
   -0.2019    2.3756    2.5931 O   0  0  0  0  0  0  0  0  0  0  0  0
   -0.4461    1.1327   -1.9993 O   0  0  0  0  0  0  0  0  0  0  0  0
   -5.1247   -3.5750   -3.9057 O   0  0  0  0  0  0  0  0  0  0  0  0
    6.4735   -0.3824    1.9612 H   0  0  0  0  0  0  0  0  0  0  0  0
    6.1520   -0.9522    3.5831 H   0  0  0  0  0  0  0  0  0  0  0  0
    7.6777   -0.1841    3.2137 H   0  0  0  0  0  0  0  0  0  0  0  0
    6.6213    1.9253    2.8827 H   0  0  0  0  0  0  0  0  0  0  0  0
    6.0596    1.2879    4.4099 H   0  0  0  0  0  0  0  0  0  0  0  0
    0.8292    0.8310    4.2871 H   0  0  0  0  0  0  0  0  0  0  0  0
    0.8014    0.6920    0.1800 H   0  0  0  0  0  0  0  0  0  0  0  0
   -1.6289    2.1108    0.2606 H   0  0  0  0  0  0  0  0  0  0  0  0
   -1.8263    0.5229    0.9633 H   0  0  0  0  0  0  0  0  0  0  0  0
    0.3524    0.6012   -2.0394 H   0  0  0  0  0  0  0  0  0  0  0  0
   -1.0205   -1.5077   -0.2647 H   0  0  0  0  0  0  0  0  0  0  0  0
   -0.9041   -1.4618   -2.0078 H   0  0  0  0  0  0  0  0  0  0  0  0
   -3.4477   -1.2359   -0.3345 H   0  0  0  0  0  0  0  0  0  0  0  0
   -3.3537   -2.9603   -2.0276 H   0  0  0  0  0  0  0  0  0  0  0  0
   -2.9520   -1.7626   -3.2352 H   0  0  0  0  0  0  0  0  0  0  0  0
   -5.3831   -0.9870   -2.2084 H   0  0  0  0  0  0  0  0  0  0  0  0
   -7.0943   -1.4582   -4.4126 H   0  0  0  0  0  0  0  0  0  0  0  0
   -7.4591   -1.7925   -2.7365 H   0  0  0  0  0  0  0  0  0  0  0  0
   -3.5287    1.0892   -1.1234 H   0  0  0  0  0  0  0  0  0  0  0  0
   -2.9277    0.6387   -2.7014 H   0  0  0  0  0  0  0  0  0  0  0  0
    2.6848    1.6238    0.1854 H   0  0  0  0  0  0  0  0  0  0  0  0
    5.0449    0.7411   -0.3220 H   0  0  0  0  0  0  0  0  0  0  0  0
    6.2607    0.9518    0.9149 H   0  0  0  0  0  0  0  0  0  0  0  0
    5.5596    2.3479    0.1315 H   0  0  0  0  0  0  0  0  0  0  0  0
  1  2  1  0  0  0  0
  1 27  1  0  0  0  0
  1 28  1  0  0  0  0
  1 29  1  0  0  0  0
  2  3  1  0  0  0  0
  2 30  1  0  0  0  0
  2 31  1  0  0  0  0
  3 17  1  0  0  0  0
  3 19  2  0  0  0  0
  4 19  1  0  0  0  0
  4 23  1  0  0  0  0
  4  5  2  0  0  0  0
  5  6  1  0  0  0  0
  5 16  1  0  0  0  0
  6 20  1  0  0  0  0
  6 24  2  0  0  0  0
  7 20  1  0  0  0  0
  7  8  1  0  0  0  0
  7 34  1  0  0  0  0
  7 35  1  0  0  0  0
  8 25  1  6  0  0  0
  8  9  1  0  0  0  0
  8 15  1  0  0  0  0
  9 10  1  0  0  0  0
  9 37  1  0  0  0  0
  9 38  1  0  0  0  0
 10 11  1  0  0  0  0
 10 15  1  0  0  0  0
 10 39  1  1  0  0  0
 11 21  1  0  0  0  0
 11 40  1  0  0  0  0
 11 41  1  0  0  0  0
 12 21  1  0  0  0  0
 12 13  1  0  0  0  0
 12 26  2  0  0  0  0
 13 14  1  0  0  0  0
 13 43  1  0  0  0  0
 13 44  1  0  0  0  0
 14 22  3  0  0  0  0
 15 45  1  0  0  0  0
 15 46  1  0  0  0  0
 16 47  1  0  0  0  0
 16 17  2  0  0  0  0
 17 18  1  0  0  0  0
 18 48  1  0  0  0  0
 18 49  1  0  0  0  0
 18 50  1  0  0  0  0
 20 33  1  0  0  0  0
 21 42  1  0  0  0  0
 23 32  1  0  0  0  0
 25 36  1  0  0  0  0
M  END
>  <score>
0.45059400796890259

$$$$
Z3775942974
 OpenBabel08202115463D

 47 50  0  0  0  0  0  0  0  0999 V2000
   -7.7193   -1.5420   -3.3450 C   0  0  0  0  0  0  0  0  0  0  0  0
   -6.3317   -1.4277   -2.7844 C   0  0  0  0  0  0  0  0  0  0  0  0
   -5.5788   -0.2892   -2.6302 C   0  0  0  0  0  0  0  0  0  0  0  0
   -2.3329   -0.5845   -1.2608 C   0  0  0  0  0  0  0  0  0  0  0  0
   -1.1860    0.2447   -0.9206 C   0  0  0  0  0  0  0  0  0  0  0  0
    0.6405    0.7694    0.0356 C   0  0  0  0  0  0  0  0  0  0  0  0
    1.8345    0.5737    0.9312 C   0  0  0  0  0  0  0  0  0  0  0  0
    2.5192    1.8784    1.3043 C   0  0  2  0  0  0  0  0  0  0  0  0
    3.7645    2.0595    0.4325 C   0  0  0  0  0  0  0  0  0  0  0  0
    4.8576    1.0263    0.7403 C   0  0  0  0  0  0  0  0  0  0  0  0
    5.2608    1.0562    2.2258 C   0  0  1  0  0  0  0  0  0  0  0  0
    5.8673    2.4100    2.5574 C   0  0  0  0  0  0  0  0  0  0  0  0
    3.9997    0.8190    3.1194 C   0  0  0  0  0  0  0  0  0  0  0  0
    2.9069    1.8402    2.8234 C   0  0  0  0  0  0  0  0  0  0  0  0
   -2.2870   -1.9902   -1.0406 C   0  0  0  0  0  0  0  0  0  0  0  0
   -3.3549   -2.7352   -1.3741 C   0  0  0  0  0  0  0  0  0  0  0  0
   -3.4088   -4.2334   -1.1894 C   0  0  0  0  0  0  0  0  0  0  0  0
   -4.4809   -2.0846   -1.9238 C   0  0  0  0  0  0  0  0  0  0  0  0
   -4.3982   -0.7048   -2.0820 N   0  0  0  0  0  0  0  0  0  0  0  0
   -3.3379    0.0813   -1.7588 N   0  0  0  0  0  0  0  0  0  0  0  0
   -0.8902    1.4283   -1.3342 N   0  0  0  0  0  0  0  0  0  0  0  0
    0.3129    1.7768   -0.6972 N   0  0  0  0  0  0  0  0  0  0  0  0
   -5.6455   -2.5365   -2.3448 N   0  0  0  0  0  0  0  0  0  0  0  0
   -0.2646   -0.2508   -0.0466 O   0  0  0  0  0  0  0  0  0  0  0  0
   -8.2918   -0.6843   -3.0593 H   0  0  0  0  0  0  0  0  0  0  0  0
   -8.1864   -2.4256   -2.9631 H   0  0  0  0  0  0  0  0  0  0  0  0
   -7.6690   -1.5974   -4.4124 H   0  0  0  0  0  0  0  0  0  0  0  0
   -5.8501    0.6837   -2.8782 H   0  0  0  0  0  0  0  0  0  0  0  0
    2.5417   -0.0493    0.4247 H   0  0  0  0  0  0  0  0  0  0  0  0
    1.5110    0.0900    1.8291 H   0  0  0  0  0  0  0  0  0  0  0  0
    1.8491    2.6950    1.1333 H   0  0  0  0  0  0  0  0  0  0  0  0
    3.4806    1.9618   -0.5945 H   0  0  0  0  0  0  0  0  0  0  0  0
    4.1615    3.0386    0.6018 H   0  0  0  0  0  0  0  0  0  0  0  0
    5.7181    1.2424    0.1422 H   0  0  0  0  0  0  0  0  0  0  0  0
    4.4910    0.0504    0.4993 H   0  0  0  0  0  0  0  0  0  0  0  0
    5.9800    0.2868    2.4145 H   0  0  0  0  0  0  0  0  0  0  0  0
    5.1176    3.1684    2.4695 H   0  0  0  0  0  0  0  0  0  0  0  0
    6.6667    2.6185    1.8774 H   0  0  0  0  0  0  0  0  0  0  0  0
    6.2444    2.3960    3.5586 H   0  0  0  0  0  0  0  0  0  0  0  0
    4.2821    0.9002    4.1483 H   0  0  0  0  0  0  0  0  0  0  0  0
    3.6188   -0.1628    2.9300 H   0  0  0  0  0  0  0  0  0  0  0  0
    2.0374    1.5876    3.3935 H   0  0  0  0  0  0  0  0  0  0  0  0
    3.2550    2.8095    3.1135 H   0  0  0  0  0  0  0  0  0  0  0  0
   -1.4411   -2.4334   -0.6286 H   0  0  0  0  0  0  0  0  0  0  0  0
   -3.4366   -4.7105   -2.1467 H   0  0  0  0  0  0  0  0  0  0  0  0
   -4.2871   -4.4930   -0.6361 H   0  0  0  0  0  0  0  0  0  0  0  0
   -2.5408   -4.5580   -0.6544 H   0  0  0  0  0  0  0  0  0  0  0  0
  1  2  1  0  0  0  0
  1 25  1  0  0  0  0
  1 26  1  0  0  0  0
  1 27  1  0  0  0  0
  2 23  1  0  0  0  0
  2  3  2  0  0  0  0
  3 19  1  0  0  0  0
  3 28  1  0  0  0  0
  4  5  1  0  0  0  0
  4 15  1  0  0  0  0
  4 20  2  0  0  0  0
  5 24  1  0  0  0  0
  5 21  2  0  0  0  0
  6  7  1  0  0  0  0
  6 24  1  0  0  0  0
  6 22  2  0  0  0  0
  7  8  1  0  0  0  0
  7 29  1  0  0  0  0
  7 30  1  0  0  0  0
  8  9  1  0  0  0  0
  8 14  1  0  0  0  0
  8 31  1  6  0  0  0
  9 10  1  0  0  0  0
  9 32  1  0  0  0  0
  9 33  1  0  0  0  0
 10 11  1  0  0  0  0
 10 34  1  0  0  0  0
 10 35  1  0  0  0  0
 11 12  1  0  0  0  0
 11 13  1  0  0  0  0
 11 36  1  1  0  0  0
 12 37  1  0  0  0  0
 12 38  1  0  0  0  0
 12 39  1  0  0  0  0
 13 14  1  0  0  0  0
 13 40  1  0  0  0  0
 13 41  1  0  0  0  0
 14 42  1  0  0  0  0
 14 43  1  0  0  0  0
 15 44  1  0  0  0  0
 15 16  2  0  0  0  0
 16 17  1  0  0  0  0
 16 18  1  0  0  0  0
 17 45  1  0  0  0  0
 17 46  1  0  0  0  0
 17 47  1  0  0  0  0
 18 19  1  0  0  0  0
 18 23  2  0  0  0  0
 19 20  1  0  0  0  0
 21 22  1  0  0  0  0
M  END
>  <score>
0.4506039023399353

$$$$
Z3912016679
 OpenBabel08202115463D

 56 58  0  0  0  0  0  0  0  0999 V2000
    7.2344    1.5676    2.7290 C   0  0  0  0  0  0  0  0  0  0  0  0
    6.3715    0.4607    2.1545 C   0  0  0  0  0  0  0  0  0  0  0  0
    4.9238    0.9283    1.9970 C   0  0  1  0  0  0  0  0  0  0  0  0
    4.0673   -0.2285    1.5449 C   0  0  0  0  0  0  0  0  0  0  0  0
    1.8368   -0.6821    0.5247 C   0  0  0  0  0  0  0  0  0  0  0  0
    0.5202   -0.1417    0.1136 C   0  0  0  0  0  0  0  0  0  0  0  0
    0.2275    1.2061    0.2023 C   0  0  0  0  0  0  0  0  0  0  0  0
   -1.0147    1.6735   -0.1976 C   0  0  0  0  0  0  0  0  0  0  0  0
   -1.9625    0.7909   -0.6801 C   0  0  0  0  0  0  0  0  0  0  0  0
   -3.3015    1.3523   -1.0965 C   0  0  0  0  0  0  0  0  0  0  0  0
   -4.4838   -0.4160   -2.3163 C   0  0  0  0  0  0  0  0  0  0  0  0
   -5.5988   -1.4347   -2.2775 C   0  0  0  0  0  0  0  0  0  0  0  0
   -5.0978   -2.7892   -1.7645 C   0  0  0  0  0  0  0  0  0  0  0  0
   -6.1273   -3.7995   -2.2783 C   0  0  0  0  0  0  0  0  0  0  0  0
   -6.7498   -3.1522   -3.5227 C   0  0  0  0  0  0  0  0  0  0  0  0
   -6.0759   -1.7847   -3.6774 C   0  0  0  0  0  0  0  0  0  0  0  0
   -1.6691   -0.5610   -0.7692 C   0  0  0  0  0  0  0  0  0  0  0  0
   -0.4304   -1.0269   -0.3703 C   0  0  0  0  0  0  0  0  0  0  0  0
    4.4009    1.5033    3.3050 C   0  0  0  0  0  0  0  0  0  0  0  0
    4.0457    2.9495    3.0156 C   0  0  0  0  0  0  0  0  0  0  0  0
    4.3722    3.1566    1.5594 C   0  0  0  0  0  0  0  0  0  0  0  0
    2.7042    0.1359    1.1545 N   0  0  0  0  0  0  0  0  0  0  0  0
   -4.3333    0.3220   -1.2128 N   0  0  0  0  0  0  0  0  0  0  0  0
    4.8410    2.0263    1.0510 N   0  0  0  0  0  0  0  0  0  0  0  0
    2.1313   -1.8594    0.2938 O   0  0  0  0  0  0  0  0  0  0  0  0
   -3.7700   -0.2884   -3.3099 O   0  0  0  0  0  0  0  0  0  0  0  0
    4.2278    4.2007    0.9451 O   0  0  0  0  0  0  0  0  0  0  0  0
    8.2407    1.2189    2.8322 H   0  0  0  0  0  0  0  0  0  0  0  0
    6.8560    1.8531    3.6882 H   0  0  0  0  0  0  0  0  0  0  0  0
    7.2154    2.4118    2.0718 H   0  0  0  0  0  0  0  0  0  0  0  0
    6.3982   -0.3825    2.8127 H   0  0  0  0  0  0  0  0  0  0  0  0
    6.7551    0.1781    1.1964 H   0  0  0  0  0  0  0  0  0  0  0  0
    4.0069   -0.9324    2.3485 H   0  0  0  0  0  0  0  0  0  0  0  0
    4.5436   -0.6869    0.7035 H   0  0  0  0  0  0  0  0  0  0  0  0
    2.3991    1.0427    1.3669 H   0  0  0  0  0  0  0  0  0  0  0  0
    0.9393    1.8697    0.5692 H   0  0  0  0  0  0  0  0  0  0  0  0
   -1.2335    2.6883   -0.1346 H   0  0  0  0  0  0  0  0  0  0  0  0
   -3.1905    1.8342   -2.0454 H   0  0  0  0  0  0  0  0  0  0  0  0
   -3.6142    2.0691   -0.3662 H   0  0  0  0  0  0  0  0  0  0  0  0
   -4.9351    0.1677   -0.4549 H   0  0  0  0  0  0  0  0  0  0  0  0
   -6.4011   -1.0633   -1.6749 H   0  0  0  0  0  0  0  0  0  0  0  0
   -4.1265   -3.0063   -2.1574 H   0  0  0  0  0  0  0  0  0  0  0  0
   -5.0607   -2.7980   -0.6952 H   0  0  0  0  0  0  0  0  0  0  0  0
   -5.6499   -4.7219   -2.5357 H   0  0  0  0  0  0  0  0  0  0  0  0
   -6.8767   -3.9801   -1.5362 H   0  0  0  0  0  0  0  0  0  0  0  0
   -7.8047   -3.0325   -3.3897 H   0  0  0  0  0  0  0  0  0  0  0  0
   -6.5649   -3.7562   -4.3863 H   0  0  0  0  0  0  0  0  0  0  0  0
   -6.7753   -1.0565   -4.0315 H   0  0  0  0  0  0  0  0  0  0  0  0
   -5.2494   -1.8450   -4.3544 H   0  0  0  0  0  0  0  0  0  0  0  0
   -2.3809   -1.2246   -1.1360 H   0  0  0  0  0  0  0  0  0  0  0  0
   -0.2116   -2.0416   -0.4333 H   0  0  0  0  0  0  0  0  0  0  0  0
    3.5339    0.9652    3.6269 H   0  0  0  0  0  0  0  0  0  0  0  0
    5.1555    1.4505    4.0618 H   0  0  0  0  0  0  0  0  0  0  0  0
    3.0050    3.1224    3.1942 H   0  0  0  0  0  0  0  0  0  0  0  0
    4.6272    3.6075    3.6270 H   0  0  0  0  0  0  0  0  0  0  0  0
    5.1099    1.9388    0.1127 H   0  0  0  0  0  0  0  0  0  0  0  0
  1  2  1  0  0  0  0
  1 28  1  0  0  0  0
  1 29  1  0  0  0  0
  1 30  1  0  0  0  0
  2 31  1  0  0  0  0
  2 32  1  0  0  0  0
  3  2  1  1  0  0  0
  3  4  1  0  0  0  0
  3 19  1  0  0  0  0
  3 24  1  0  0  0  0
  4 22  1  0  0  0  0
  4 33  1  0  0  0  0
  4 34  1  0  0  0  0
  5 22  1  0  0  0  0
  5  6  1  0  0  0  0
  5 25  2  0  0  0  0
  6 18  1  0  0  0  0
  6  7  2  0  0  0  0
  7  8  1  0  0  0  0
  7 36  1  0  0  0  0
  8 37  1  0  0  0  0
  8  9  2  0  0  0  0
  9 10  1  0  0  0  0
  9 17  1  0  0  0  0
 10 23  1  0  0  0  0
 10 38  1  0  0  0  0
 10 39  1  0  0  0  0
 11 23  1  0  0  0  0
 11 12  1  0  0  0  0
 11 26  2  0  0  0  0
 12 13  1  0  0  0  0
 12 16  1  0  0  0  0
 12 41  1  0  0  0  0
 13 14  1  0  0  0  0
 13 42  1  0  0  0  0
 13 43  1  0  0  0  0
 14 15  1  0  0  0  0
 14 44  1  0  0  0  0
 14 45  1  0  0  0  0
 15 16  1  0  0  0  0
 15 46  1  0  0  0  0
 15 47  1  0  0  0  0
 16 48  1  0  0  0  0
 16 49  1  0  0  0  0
 17 50  1  0  0  0  0
 17 18  2  0  0  0  0
 18 51  1  0  0  0  0
 19 20  1  0  0  0  0
 19 52  1  0  0  0  0
 19 53  1  0  0  0  0
 20 21  1  0  0  0  0
 20 54  1  0  0  0  0
 20 55  1  0  0  0  0
 21 24  1  0  0  0  0
 21 27  2  0  0  0  0
 22 35  1  0  0  0  0
 23 40  1  0  0  0  0
 24 56  1  0  0  0  0
M  END
>  <score>
0.4506378173828125

$$$$
PV-003823338453
 OpenBabel08202115463D

 50 53  0  0  0  0  0  0  0  0999 V2000
   -7.7566   -4.3730   -3.5043 C   0  0  0  0  0  0  0  0  0  0  0  0
   -6.6139   -3.5319   -3.1883 C   0  0  0  0  0  0  0  0  0  0  0  0
   -5.7010   -2.0765   -1.5129 C   0  0  0  0  0  0  0  0  0  0  0  0
   -4.8555   -1.6375   -2.5198 C   0  0  0  0  0  0  0  0  0  0  0  0
   -3.8482   -0.7360   -2.2320 C   0  0  0  0  0  0  0  0  0  0  0  0
   -3.6867   -0.2668   -0.9377 C   0  0  0  0  0  0  0  0  0  0  0  0
   -1.3352    0.5971   -1.1091 C   0  0  0  0  0  0  0  0  0  0  0  0
   -0.7110    1.6392   -0.4699 C   0  0  0  0  0  0  0  0  0  0  0  0
    0.7004    2.1317   -0.6064 C   0  0  0  0  0  0  0  0  0  0  0  0
    2.9155    1.7903    0.3882 C   0  0  0  0  0  0  0  0  0  0  0  0
    3.7759    0.9807    1.3326 C   0  0  1  0  0  0  0  0  0  0  0  0
    5.2528    0.9222    0.8308 C   0  0  0  0  0  0  0  0  0  0  0  0
    5.9879    1.8506    1.8811 C   0  0  1  0  0  0  0  0  0  0  0  0
    4.8769    2.8150    2.3912 C   0  0  0  0  0  0  0  0  0  0  0  0
    4.9724    1.2829    2.1974 C   0  0  1  0  0  0  0  0  0  0  0  0
    4.6996    0.7528    3.6130 C   0  0  0  0  0  0  0  0  0  0  0  0
    6.1527    0.9339    3.1295 C   0  0  1  0  0  0  0  0  0  0  0  0
   -4.5298   -0.7046    0.0662 C   0  0  0  0  0  0  0  0  0  0  0  0
   -5.5401   -1.6087   -0.2223 C   0  0  0  0  0  0  0  0  0  0  0  0
   -6.6787   -2.9773   -1.8652 O   0  0  0  0  0  0  0  0  0  0  0  0
    3.3863    2.7439   -0.2095 O   0  0  0  0  0  0  0  0  0  0  0  0
    6.7292   -0.3040    2.7782 O   0  0  0  0  0  0  0  0  0  0  0  0
   -2.5927    0.5921   -0.6270 N   0  0  0  0  0  0  0  0  0  0  0  0
    1.6207    1.4685    0.3171 N   0  0  0  0  0  0  0  0  0  0  0  0
   -1.6189    2.2130    0.3737 N   0  0  0  0  0  0  0  0  0  0  0  0
   -2.7589    1.5774    0.2793 N   0  0  0  0  0  0  0  0  0  0  0  0
   -7.6248   -4.8049   -4.4744 H   0  0  0  0  0  0  0  0  0  0  0  0
   -8.6480   -3.7811   -3.4959 H   0  0  0  0  0  0  0  0  0  0  0  0
   -7.8383   -5.1520   -2.7754 H   0  0  0  0  0  0  0  0  0  0  0  0
   -6.5756   -2.7285   -3.8939 H   0  0  0  0  0  0  0  0  0  0  0  0
   -5.7240   -4.1206   -3.2687 H   0  0  0  0  0  0  0  0  0  0  0  0
   -4.9791   -1.9865   -3.4916 H   0  0  0  0  0  0  0  0  0  0  0  0
   -3.2113   -0.4097   -2.9867 H   0  0  0  0  0  0  0  0  0  0  0  0
   -0.9255   -0.0491   -1.8135 H   0  0  0  0  0  0  0  0  0  0  0  0
    0.7165    3.1833   -0.4095 H   0  0  0  0  0  0  0  0  0  0  0  0
    1.0308    1.9506   -1.6079 H   0  0  0  0  0  0  0  0  0  0  0  0
    1.2756    0.7637    0.9040 H   0  0  0  0  0  0  0  0  0  0  0  0
    3.3671   -0.0029    1.4340 H   0  0  0  0  0  0  0  0  0  0  0  0
    5.3425    1.3105   -0.1622 H   0  0  0  0  0  0  0  0  0  0  0  0
    5.6347   -0.0769    0.8596 H   0  0  0  0  0  0  0  0  0  0  0  0
    6.8828    2.3191    1.5283 H   0  0  0  0  0  0  0  0  0  0  0  0
    5.1565    3.3592    3.2690 H   0  0  0  0  0  0  0  0  0  0  0  0
    4.5300    3.4973    1.6434 H   0  0  0  0  0  0  0  0  0  0  0  0
    5.9065    0.9599    1.7874 H   0  0  0  0  0  0  0  0  0  0  0  0
    4.3908   -0.2675    3.5199 H   0  0  0  0  0  0  0  0  0  0  0  0
    4.5941    1.0665    4.6305 H   0  0  0  0  0  0  0  0  0  0  0  0
    6.7521    1.4073    3.8789 H   0  0  0  0  0  0  0  0  0  0  0  0
    7.6859   -0.2238    2.7797 H   0  0  0  0  0  0  0  0  0  0  0  0
   -4.4061   -0.3556    1.0381 H   0  0  0  0  0  0  0  0  0  0  0  0
   -6.1771   -1.9351    0.5324 H   0  0  0  0  0  0  0  0  0  0  0  0
  1  2  1  0  0  0  0
  1 27  1  0  0  0  0
  1 28  1  0  0  0  0
  1 29  1  0  0  0  0
  2 20  1  0  0  0  0
  2 30  1  0  0  0  0
  2 31  1  0  0  0  0
  3 20  1  0  0  0  0
  3 19  1  0  0  0  0
  3  4  2  0  0  0  0
  4  5  1  0  0  0  0
  4 32  1  0  0  0  0
  5 33  1  0  0  0  0
  5  6  2  0  0  0  0
  6 23  1  0  0  0  0
  6 18  1  0  0  0  0
  7 23  1  0  0  0  0
  7 34  1  0  0  0  0
  7  8  2  0  0  0  0
  8  9  1  0  0  0  0
  8 25  1  0  0  0  0
  9 24  1  0  0  0  0
  9 35  1  0  0  0  0
  9 36  1  0  0  0  0
 10 24  1  0  0  0  0
 10 11  1  0  0  0  0
 10 21  2  0  0  0  0
 11 12  1  0  0  0  0
 11 15  1  0  0  0  0
 11 38  1  1  0  0  0
 12 13  1  0  0  0  0
 12 39  1  0  0  0  0
 12 40  1  0  0  0  0
 13 14  1  0  0  0  0
 13 17  1  0  0  0  0
 13 41  1  6  0  0  0
 14 15  1  0  0  0  0
 14 42  1  0  0  0  0
 14 43  1  0  0  0  0
 15 16  1  0  0  0  0
 15 44  1  6  0  0  0
 16 17  1  0  0  0  0
 16 45  1  0  0  0  0
 16 46  1  0  0  0  0
 17 22  1  0  0  0  0
 17 47  1  1  0  0  0
 18 49  1  0  0  0  0
 18 19  2  0  0  0  0
 19 50  1  0  0  0  0
 22 48  1  0  0  0  0
 23 26  1  0  0  0  0
 24 37  1  0  0  0  0
 25 26  2  0  0  0  0
M  END
>  <score>
0.45073378086090088

$$$$
PV-003439108044
 OpenBabel08202115463D

 47 50  0  0  0  0  0  0  0  0999 V2000
    2.8089   -0.5121    1.7303 O   0  0  0  0  0  0  0  0  0  0  0  0
   -4.1562   -0.0244   -1.6398 O   0  0  0  0  0  0  0  0  0  0  0  0
    2.7600    0.7006    1.5736 C   0  0  0  0  0  0  0  0  0  0  0  0
    0.4701    0.6511    0.7609 C   0  0  0  0  0  0  0  0  0  0  0  0
   -0.6122    1.5678    0.1887 C   0  0  1  0  0  0  0  0  0  0  0  0
   -0.8398    1.8012   -1.2721 C   0  0  0  0  0  0  0  0  0  0  0  0
   -1.8763    1.0904   -0.4541 C   0  0  1  0  0  0  0  0  0  0  0  0
   -3.2480   -0.7730   -1.2832 C   0  0  0  0  0  0  0  0  0  0  0  0
   -3.3322   -2.2306   -1.4896 C   0  0  1  0  0  0  0  0  0  0  0  0
   -4.6834   -2.7877   -1.1075 C   0  0  0  0  0  0  0  0  0  0  0  0
   -5.8377   -2.3088   -2.0032 C   0  0  0  0  0  0  0  0  0  0  0  0
   -5.6009   -2.7337   -3.4632 C   0  0  0  0  0  0  0  0  0  0  0  0
   -2.8981   -2.6209   -2.8884 C   0  0  0  0  0  0  0  0  0  0  0  0
    3.8853    1.5630    1.9343 C   0  0  0  0  0  0  0  0  0  0  0  0
    3.9643    2.8942    1.7198 C   0  0  0  0  0  0  0  0  0  0  0  0
    5.1255    3.6351    2.0284 C   0  0  0  0  0  0  0  0  0  0  0  0
    6.1928    3.0007    2.5595 C   0  0  0  0  0  0  0  0  0  0  0  0
    6.1460    1.6130    2.8057 C   0  0  0  0  0  0  0  0  0  0  0  0
    6.9989    0.6736    3.3408 C   0  0  0  0  0  0  0  0  0  0  0  0
    5.2201   -0.3939    2.7889 C   0  0  0  0  0  0  0  0  0  0  0  0
    1.7009    1.3644    1.0677 N   0  0  0  0  0  0  0  0  0  0  0  0
   -2.1287   -0.3322   -0.6889 N   0  0  0  0  0  0  0  0  0  0  0  0
    6.4326   -0.5434    3.3065 N   0  0  0  0  0  0  0  0  0  0  0  0
    4.9864    0.9088    2.4595 N   0  0  0  0  0  0  0  0  0  0  0  0
   -4.0737   -2.0027   -4.1275 S   0  0  0  0  0  0  0  0  0  0  0  0
    1.7601    2.3292    0.9064 H   0  0  0  0  0  0  0  0  0  0  0  0
    0.1002    0.2034    1.6596 H   0  0  0  0  0  0  0  0  0  0  0  0
    0.6863   -0.1132    0.0439 H   0  0  0  0  0  0  0  0  0  0  0  0
   -0.7521    2.4500    0.7779 H   0  0  0  0  0  0  0  0  0  0  0  0
   -0.2663    1.2607   -1.9959 H   0  0  0  0  0  0  0  0  0  0  0  0
   -1.0289    2.7907   -1.6327 H   0  0  0  0  0  0  0  0  0  0  0  0
   -2.7422    1.6760   -0.2256 H   0  0  0  0  0  0  0  0  0  0  0  0
   -1.4568   -0.9854   -0.4020 H   0  0  0  0  0  0  0  0  0  0  0  0
   -2.6247   -2.6765   -0.8221 H   0  0  0  0  0  0  0  0  0  0  0  0
   -4.8953   -2.4934   -0.1009 H   0  0  0  0  0  0  0  0  0  0  0  0
   -4.6347   -3.8551   -1.1648 H   0  0  0  0  0  0  0  0  0  0  0  0
   -6.7540   -2.7387   -1.6560 H   0  0  0  0  0  0  0  0  0  0  0  0
   -5.9023   -1.2420   -1.9533 H   0  0  0  0  0  0  0  0  0  0  0  0
   -5.5242   -3.8000   -3.5073 H   0  0  0  0  0  0  0  0  0  0  0  0
   -6.4291   -2.4103   -4.0585 H   0  0  0  0  0  0  0  0  0  0  0  0
   -2.8480   -3.6876   -2.9547 H   0  0  0  0  0  0  0  0  0  0  0  0
   -1.9319   -2.2050   -3.0841 H   0  0  0  0  0  0  0  0  0  0  0  0
    3.1440    3.3888    1.3146 H   0  0  0  0  0  0  0  0  0  0  0  0
    5.1588    4.6590    1.8487 H   0  0  0  0  0  0  0  0  0  0  0  0
    7.0534    3.5382    2.7880 H   0  0  0  0  0  0  0  0  0  0  0  0
    7.9464    0.8777    3.7178 H   0  0  0  0  0  0  0  0  0  0  0  0
    4.5383   -1.1673    2.6525 H   0  0  0  0  0  0  0  0  0  0  0  0
  3 21  1  0  0  0  0
  3 14  1  0  0  0  0
  3  1  2  0  0  0  0
  4 21  1  0  0  0  0
  4  5  1  0  0  0  0
  4 27  1  0  0  0  0
  4 28  1  0  0  0  0
  5  6  1  0  0  0  0
  5  7  1  0  0  0  0
  5 29  1  1  0  0  0
  6  7  1  0  0  0  0
  6 30  1  0  0  0  0
  6 31  1  0  0  0  0
  7 22  1  0  0  0  0
  7 32  1  1  0  0  0
  8 22  1  0  0  0  0
  8  9  1  0  0  0  0
  8  2  2  0  0  0  0
  9 10  1  0  0  0  0
  9 13  1  0  0  0  0
  9 34  1  1  0  0  0
 10 11  1  0  0  0  0
 10 35  1  0  0  0  0
 10 36  1  0  0  0  0
 11 12  1  0  0  0  0
 11 37  1  0  0  0  0
 11 38  1  0  0  0  0
 12 25  1  0  0  0  0
 12 39  1  0  0  0  0
 12 40  1  0  0  0  0
 13 25  1  0  0  0  0
 13 41  1  0  0  0  0
 13 42  1  0  0  0  0
 14 24  1  0  0  0  0
 14 15  2  0  0  0  0
 15 16  1  0  0  0  0
 15 43  1  0  0  0  0
 16 44  1  0  0  0  0
 16 17  2  0  0  0  0
 17 18  1  0  0  0  0
 17 45  1  0  0  0  0
 18 24  1  0  0  0  0
 18 19  2  0  0  0  0
 19 23  1  0  0  0  0
 19 46  1  0  0  0  0
 20 24  1  0  0  0  0
 20 47  1  0  0  0  0
 20 23  2  0  0  0  0
 21 26  1  0  0  0  0
 22 33  1  0  0  0  0
M  END
>  <score>
0.45077568292617798

$$$$
PV-002093980759
 OpenBabel08202115463D

 45 48  0  0  0  0  0  0  0  0999 V2000
   -5.1741   -3.2969   -2.6256 C   0  0  0  0  0  0  0  0  0  0  0  0
   -4.0327   -2.5703   -1.9040 C   0  0  0  0  0  0  0  0  0  0  0  0
   -2.7020   -3.0492   -2.4967 C   0  0  0  0  0  0  0  0  0  0  0  0
   -4.1447   -2.7910   -0.3766 C   0  0  0  0  0  0  0  0  0  0  0  0
   -4.1577   -1.0790   -2.2014 C   0  0  0  0  0  0  0  0  0  0  0  0
   -3.0425   -0.2373   -1.7080 C   0  0  0  0  0  0  0  0  0  0  0  0
   -1.2792    0.5835   -0.8468 C   0  0  0  0  0  0  0  0  0  0  0  0
   -0.0745    0.8307   -0.2153 C   0  0  0  0  0  0  0  0  0  0  0  0
    0.3631    2.1408   -0.1683 C   0  0  0  0  0  0  0  0  0  0  0  0
    2.2625    1.5427    1.2901 C   0  0  0  0  0  0  0  0  0  0  0  0
    3.6050    1.9927    1.7337 C   0  0  0  0  0  0  0  0  0  0  0  0
    4.5591    1.2986    2.4741 C   0  0  0  0  0  0  0  0  0  0  0  0
    4.7098    0.0260    3.0727 C   0  0  0  0  0  0  0  0  0  0  0  0
    5.8568   -0.2530    3.7386 C   0  0  0  0  0  0  0  0  0  0  0  0
    6.8938    0.7266    3.8406 C   0  0  0  0  0  0  0  0  0  0  0  0
    6.7607    1.9338    3.2711 C   0  0  0  0  0  0  0  0  0  0  0  0
   -0.3761    3.1706   -0.7446 C   0  0  0  0  0  0  0  0  0  0  0  0
   -1.5673    2.9363   -1.3883 C   0  0  0  0  0  0  0  0  0  0  0  0
   -1.9918    1.6348   -1.4109 C   0  0  0  0  0  0  0  0  0  0  0  0
   -1.9825   -0.6018   -1.0584 N   0  0  0  0  0  0  0  0  0  0  0  0
    1.5829    2.3824    0.4853 N   0  0  0  0  0  0  0  0  0  0  0  0
    5.5901    2.1973    2.5942 N   0  0  0  0  0  0  0  0  0  0  0  0
    5.3079    3.3625    1.9663 N   0  0  0  0  0  0  0  0  0  0  0  0
    4.0917    3.2117    1.4517 N   0  0  0  0  0  0  0  0  0  0  0  0
    1.8097    0.4515    1.6512 O   0  0  0  0  0  0  0  0  0  0  0  0
   -3.1347    1.0989   -1.9669 O   0  0  0  0  0  0  0  0  0  0  0  0
   -5.0818   -4.3513   -2.4688 H   0  0  0  0  0  0  0  0  0  0  0  0
   -5.1242   -3.0866   -3.6735 H   0  0  0  0  0  0  0  0  0  0  0  0
   -6.1126   -2.9597   -2.2379 H   0  0  0  0  0  0  0  0  0  0  0  0
   -2.6810   -2.8370   -3.5452 H   0  0  0  0  0  0  0  0  0  0  0  0
   -2.6029   -4.1037   -2.3445 H   0  0  0  0  0  0  0  0  0  0  0  0
   -1.8934   -2.5411   -2.0140 H   0  0  0  0  0  0  0  0  0  0  0  0
   -5.1481   -2.5959   -0.0601 H   0  0  0  0  0  0  0  0  0  0  0  0
   -3.4758   -2.1267    0.1295 H   0  0  0  0  0  0  0  0  0  0  0  0
   -3.8878   -3.8031   -0.1429 H   0  0  0  0  0  0  0  0  0  0  0  0
   -5.0617   -0.7270   -1.7498 H   0  0  0  0  0  0  0  0  0  0  0  0
   -4.2181   -0.9580   -3.2628 H   0  0  0  0  0  0  0  0  0  0  0  0
    0.4812    0.0603    0.2081 H   0  0  0  0  0  0  0  0  0  0  0  0
    1.9861    3.2635    0.3389 H   0  0  0  0  0  0  0  0  0  0  0  0
    3.9529   -0.6839    3.0030 H   0  0  0  0  0  0  0  0  0  0  0  0
    5.9838   -1.1867    4.1787 H   0  0  0  0  0  0  0  0  0  0  0  0
    7.7636    0.4998    4.3637 H   0  0  0  0  0  0  0  0  0  0  0  0
    7.5152    2.6464    3.3384 H   0  0  0  0  0  0  0  0  0  0  0  0
   -0.0165    4.1447   -0.6863 H   0  0  0  0  0  0  0  0  0  0  0  0
   -2.1139    3.7018   -1.8319 H   0  0  0  0  0  0  0  0  0  0  0  0
  1  2  1  0  0  0  0
  1 27  1  0  0  0  0
  1 28  1  0  0  0  0
  1 29  1  0  0  0  0
  2  3  1  0  0  0  0
  2  4  1  0  0  0  0
  2  5  1  0  0  0  0
  3 30  1  0  0  0  0
  3 31  1  0  0  0  0
  3 32  1  0  0  0  0
  4 33  1  0  0  0  0
  4 34  1  0  0  0  0
  4 35  1  0  0  0  0
  5  6  1  0  0  0  0
  5 36  1  0  0  0  0
  5 37  1  0  0  0  0
  6 26  1  0  0  0  0
  6 20  2  0  0  0  0
  7 20  1  0  0  0  0
  7 19  1  0  0  0  0
  7  8  2  0  0  0  0
  8  9  1  0  0  0  0
  8 38  1  0  0  0  0
  9 21  1  0  0  0  0
  9 17  2  0  0  0  0
 10 21  1  0  0  0  0
 10 11  1  0  0  0  0
 10 25  2  0  0  0  0
 11 24  1  0  0  0  0
 11 12  2  0  0  0  0
 12 13  1  0  0  0  0
 12 22  1  0  0  0  0
 13 40  1  0  0  0  0
 13 14  2  0  0  0  0
 14 15  1  0  0  0  0
 14 41  1  0  0  0  0
 15 42  1  0  0  0  0
 15 16  2  0  0  0  0
 16 22  1  0  0  0  0
 16 43  1  0  0  0  0
 17 18  1  0  0  0  0
 17 44  1  0  0  0  0
 18 45  1  0  0  0  0
 18 19  2  0  0  0  0
 19 26  1  0  0  0  0
 21 39  1  0  0  0  0
 22 23  1  0  0  0  0
 23 24  2  0  0  0  0
M  END
>  <score>
0.45079952478408813

$$$$
Z3855602681
 OpenBabel08202115463D

 40 42  0  0  0  0  0  0  0  0999 V2000
   -6.5875   -4.8369   -2.8488 C   0  0  0  0  0  0  0  0  0  0  0  0
   -5.3867   -2.8004   -2.9832 C   0  0  0  0  0  0  0  0  0  0  0  0
   -4.3054   -2.0225   -2.3934 C   0  0  0  0  0  0  0  0  0  0  0  0
   -3.9297   -0.7587   -2.7285 C   0  0  0  0  0  0  0  0  0  0  0  0
   -2.8098   -0.3273   -1.9381 C   0  0  0  0  0  0  0  0  0  0  0  0
   -2.4108   -1.3005   -1.0356 C   0  0  0  0  0  0  0  0  0  0  0  0
   -1.0332    0.7072   -0.8875 C   0  0  0  0  0  0  0  0  0  0  0  0
    0.0386    1.6411   -0.4167 C   0  0  0  0  0  0  0  0  0  0  0  0
    2.4320    2.0940   -0.2134 C   0  0  0  0  0  0  0  0  0  0  0  0
    3.6513    1.2895    0.1803 C   0  0  0  0  0  0  0  0  0  0  0  0
    2.7787    1.6460    2.5212 C   0  0  0  0  0  0  0  0  0  0  0  0
    3.0846    1.0156    3.8620 C   0  0  0  0  0  0  0  0  0  0  0  0
    4.4487    1.4456    4.3232 C   0  0  0  0  0  0  0  0  0  0  0  0
    5.2108    1.1143    2.0348 C   0  0  0  0  0  0  0  0  0  0  0  0
   -1.9963    0.8589   -1.8536 C   0  0  0  0  0  0  0  0  0  0  0  0
   -5.4804   -4.0189   -2.4394 O   0  0  0  0  0  0  0  0  0  0  0  0
   -6.1153   -2.4047   -3.8561 O   0  0  0  0  0  0  0  0  0  0  0  0
   -0.2563    2.7516    0.0370 O   0  0  0  0  0  0  0  0  0  0  0  0
    5.4467    1.0424    3.3608 O   0  0  0  0  0  0  0  0  0  0  0  0
    6.1127    0.9793    1.2309 O   0  0  0  0  0  0  0  0  0  0  0  0
   -1.0717   -0.8431   -0.0735 S   0  0  0  0  0  0  0  0  0  0  0  0
   -3.3437   -2.7339   -1.1057 S   0  0  0  0  0  0  0  0  0  0  0  0
    1.3058    1.2532   -0.5865 N   0  0  0  0  0  0  0  0  0  0  0  0
    3.9202    1.3449    1.6184 N   0  0  0  0  0  0  0  0  0  0  0  0
   -7.4326   -4.2151   -3.0587 H   0  0  0  0  0  0  0  0  0  0  0  0
   -6.8346   -5.5210   -2.0641 H   0  0  0  0  0  0  0  0  0  0  0  0
   -6.3203   -5.3840   -3.7287 H   0  0  0  0  0  0  0  0  0  0  0  0
   -4.3917   -0.1813   -3.4598 H   0  0  0  0  0  0  0  0  0  0  0  0
    1.4824    0.3715   -0.9760 H   0  0  0  0  0  0  0  0  0  0  0  0
    2.1431    2.7063    0.6151 H   0  0  0  0  0  0  0  0  0  0  0  0
    2.6860    2.7162   -1.0460 H   0  0  0  0  0  0  0  0  0  0  0  0
    4.5009    1.6765   -0.3424 H   0  0  0  0  0  0  0  0  0  0  0  0
    3.4939    0.2689   -0.1000 H   0  0  0  0  0  0  0  0  0  0  0  0
    2.6691    2.7047    2.6314 H   0  0  0  0  0  0  0  0  0  0  0  0
    1.8766    1.2333    2.1203 H   0  0  0  0  0  0  0  0  0  0  0  0
    3.0603   -0.0500    3.7679 H   0  0  0  0  0  0  0  0  0  0  0  0
    2.3524    1.3278    4.5772 H   0  0  0  0  0  0  0  0  0  0  0  0
    4.6630    0.9900    5.2674 H   0  0  0  0  0  0  0  0  0  0  0  0
    4.4677    2.5103    4.4279 H   0  0  0  0  0  0  0  0  0  0  0  0
   -2.1210    1.7083   -2.4405 H   0  0  0  0  0  0  0  0  0  0  0  0
  1 16  1  0  0  0  0
  1 25  1  0  0  0  0
  1 26  1  0  0  0  0
  1 27  1  0  0  0  0
  2 16  1  0  0  0  0
  2  3  1  0  0  0  0
  2 17  2  0  0  0  0
  3 22  1  0  0  0  0
  3  4  2  0  0  0  0
  4  5  1  0  0  0  0
  4 28  1  0  0  0  0
  5 15  1  0  0  0  0
  5  6  2  0  0  0  0
  6 21  1  0  0  0  0
  6 22  1  0  0  0  0
  7 21  1  0  0  0  0
  7  8  1  0  0  0  0
  7 15  2  0  0  0  0
  8 23  1  0  0  0  0
  8 18  2  0  0  0  0
  9 23  1  0  0  0  0
  9 10  1  0  0  0  0
  9 30  1  0  0  0  0
  9 31  1  0  0  0  0
 10 24  1  0  0  0  0
 10 32  1  0  0  0  0
 10 33  1  0  0  0  0
 11 24  1  0  0  0  0
 11 12  1  0  0  0  0
 11 34  1  0  0  0  0
 11 35  1  0  0  0  0
 12 13  1  0  0  0  0
 12 36  1  0  0  0  0
 12 37  1  0  0  0  0
 13 19  1  0  0  0  0
 13 38  1  0  0  0  0
 13 39  1  0  0  0  0
 14 24  1  0  0  0  0
 14 19  1  0  0  0  0
 14 20  2  0  0  0  0
 15 40  1  0  0  0  0
 23 29  1  0  0  0  0
M  END
>  <score>
0.45082974433898926

$$$$
PV-002936033263
 OpenBabel08202115463D

 44 46  0  0  0  0  0  0  0  0999 V2000
    2.7877    0.0734    1.9406 C   0  0  0  0  0  0  0  0  0  0  0  0
    2.4527    1.0732    0.8304 C   0  0  1  0  0  0  0  0  0  0  0  0
    0.9906    0.9737    0.5435 C   0  0  0  0  0  0  0  0  0  0  0  0
   -0.5225   -0.5794   -0.4712 C   0  0  0  0  0  0  0  0  0  0  0  0
   -1.5886    0.2971   -0.3973 C   0  0  0  0  0  0  0  0  0  0  0  0
   -2.8278   -0.0751   -0.8946 C   0  0  0  0  0  0  0  0  0  0  0  0
   -2.9986   -1.3249   -1.4595 C   0  0  0  0  0  0  0  0  0  0  0  0
   -4.2844   -1.8117   -2.0110 C   0  0  0  0  0  0  0  0  0  0  0  0
   -6.3967   -4.2534   -3.3044 C   0  0  0  0  0  0  0  0  0  0  0  0
   -6.2474   -1.8042   -2.6877 C   0  0  0  0  0  0  0  0  0  0  0  0
   -1.9295   -2.2041   -1.5337 C   0  0  0  0  0  0  0  0  0  0  0  0
   -0.6940   -1.8328   -1.0379 C   0  0  0  0  0  0  0  0  0  0  0  0
    2.9010    2.4897    1.1509 C   0  0  0  0  0  0  0  0  0  0  0  0
    4.3423    2.7435    0.7175 C   0  0  0  0  0  0  0  0  0  0  0  0
    5.2342    2.0486    1.7529 C   0  0  0  0  0  0  0  0  0  0  0  0
    4.4091    2.0782    3.0475 C   0  0  0  0  0  0  0  0  0  0  0  0
    3.0527    2.7156    2.6627 C   0  0  0  0  0  0  0  0  0  0  0  0
    0.7442   -0.3237   -0.0208 O   0  0  0  0  0  0  0  0  0  0  0  0
   -4.4778   -3.0693   -2.3624 N   0  0  0  0  0  0  0  0  0  0  0  0
   -5.7634   -3.0382   -2.8035 N   0  0  0  0  0  0  0  0  0  0  0  0
   -5.3359   -0.9916   -2.1858 N   0  0  0  0  0  0  0  0  0  0  0  0
    2.0960   -0.7423    1.9073 H   0  0  0  0  0  0  0  0  0  0  0  0
    2.7195    0.5601    2.8910 H   0  0  0  0  0  0  0  0  0  0  0  0
    3.7818   -0.2963    1.7991 H   0  0  0  0  0  0  0  0  0  0  0  0
    2.9745    0.7610   -0.0500 H   0  0  0  0  0  0  0  0  0  0  0  0
    0.7032    1.7342   -0.1521 H   0  0  0  0  0  0  0  0  0  0  0  0
    0.4328    1.0890    1.4493 H   0  0  0  0  0  0  0  0  0  0  0  0
   -1.4610    1.2360    0.0315 H   0  0  0  0  0  0  0  0  0  0  0  0
   -3.6290    0.5860   -0.8425 H   0  0  0  0  0  0  0  0  0  0  0  0
   -7.0751   -4.0035   -4.0932 H   0  0  0  0  0  0  0  0  0  0  0  0
   -6.9332   -4.7291   -2.5102 H   0  0  0  0  0  0  0  0  0  0  0  0
   -5.6462   -4.9188   -3.6772 H   0  0  0  0  0  0  0  0  0  0  0  0
   -7.2110   -1.5191   -2.9556 H   0  0  0  0  0  0  0  0  0  0  0  0
   -2.0570   -3.1430   -1.9625 H   0  0  0  0  0  0  0  0  0  0  0  0
    0.1072   -2.4939   -1.0899 H   0  0  0  0  0  0  0  0  0  0  0  0
    2.2217    3.1881    0.7085 H   0  0  0  0  0  0  0  0  0  0  0  0
    4.5142    2.3315   -0.2549 H   0  0  0  0  0  0  0  0  0  0  0  0
    4.5441    3.7942    0.7010 H   0  0  0  0  0  0  0  0  0  0  0  0
    5.4413    1.0409    1.4588 H   0  0  0  0  0  0  0  0  0  0  0  0
    6.1542    2.5805    1.8780 H   0  0  0  0  0  0  0  0  0  0  0  0
    4.9019    2.6695    3.7907 H   0  0  0  0  0  0  0  0  0  0  0  0
    4.2629    1.0857    3.4197 H   0  0  0  0  0  0  0  0  0  0  0  0
    3.0561    3.7622    2.8849 H   0  0  0  0  0  0  0  0  0  0  0  0
    2.2538    2.2405    3.1927 H   0  0  0  0  0  0  0  0  0  0  0  0
  1  2  1  0  0  0  0
  1 22  1  0  0  0  0
  1 23  1  0  0  0  0
  1 24  1  0  0  0  0
  2  3  1  0  0  0  0
  2 13  1  0  0  0  0
  2 25  1  6  0  0  0
  3 18  1  0  0  0  0
  3 26  1  0  0  0  0
  3 27  1  0  0  0  0
  4 18  1  0  0  0  0
  4 12  1  0  0  0  0
  4  5  2  0  0  0  0
  5  6  1  0  0  0  0
  5 28  1  0  0  0  0
  6 29  1  0  0  0  0
  6  7  2  0  0  0  0
  7  8  1  0  0  0  0
  7 11  1  0  0  0  0
  8 21  1  0  0  0  0
  8 19  2  0  0  0  0
  9 20  1  0  0  0  0
  9 30  1  0  0  0  0
  9 31  1  0  0  0  0
  9 32  1  0  0  0  0
 10 20  1  0  0  0  0
 10 33  1  0  0  0  0
 10 21  2  0  0  0  0
 11 34  1  0  0  0  0
 11 12  2  0  0  0  0
 12 35  1  0  0  0  0
 13 14  1  0  0  0  0
 13 17  1  0  0  0  0
 13 36  1  0  0  0  0
 14 15  1  0  0  0  0
 14 37  1  0  0  0  0
 14 38  1  0  0  0  0
 15 16  1  0  0  0  0
 15 39  1  0  0  0  0
 15 40  1  0  0  0  0
 16 17  1  0  0  0  0
 16 41  1  0  0  0  0
 16 42  1  0  0  0  0
 17 43  1  0  0  0  0
 17 44  1  0  0  0  0
 19 20  1  0  0  0  0
M  END
>  <score>
0.45089143514633179

$$$$
Z3837873386
 OpenBabel08202115463D

 44 47  0  0  0  0  0  0  0  0999 V2000
    6.2184    2.6184    3.7774 N   0  0  0  0  0  0  0  0  0  0  0  0
    1.7498    0.7194   -0.4796 N   0  0  0  0  0  0  0  0  0  0  0  0
    0.1350    0.5906    1.1012 N   0  0  0  0  0  0  0  0  0  0  0  0
    5.3584    2.1139    2.6435 S   0  0  2  0  0  0  0  0  0  0  0  0
    6.1765    1.8682    1.4966 O   0  0  0  0  0  0  0  0  0  0  0  0
    0.5432    0.2554   -1.0406 O   0  0  0  0  0  0  0  0  0  0  0  0
    4.0674    3.2979    2.2556 C   0  0  0  0  0  0  0  0  0  0  0  0
    3.0704    2.6715    1.2803 C   0  0  0  0  0  0  0  0  0  0  0  0
    2.4284    1.3796    1.7998 C   0  0  1  0  0  0  0  0  0  0  0  0
    1.4433    0.8922    0.7786 C   0  0  0  0  0  0  0  0  0  0  0  0
   -0.3566    0.2197   -0.0406 C   0  0  0  0  0  0  0  0  0  0  0  0
   -1.7148   -0.2300   -0.4327 C   0  0  1  0  0  0  0  0  0  0  0  0
   -2.2532    0.4056   -1.7338 C   0  0  0  0  0  0  0  0  0  0  0  0
   -2.6862   -1.0002   -2.2518 C   0  0  2  0  0  0  0  0  0  0  0  0
   -4.1587   -1.3157   -2.0725 C   0  0  0  0  0  0  0  0  0  0  0  0
   -4.5525   -2.7630   -2.3186 C   0  0  0  0  0  0  0  0  0  0  0  0
   -5.0521   -3.2974   -3.6241 C   0  0  0  0  0  0  0  0  0  0  0  0
   -5.9654   -3.2507   -2.4394 C   0  0  0  0  0  0  0  0  0  0  0  0
   -1.7576   -1.6032   -1.1665 C   0  0  0  0  0  0  0  0  0  0  0  0
    3.4476    0.2651    2.0649 C   0  0  0  0  0  0  0  0  0  0  0  0
    4.4868    0.6224    3.1279 C   0  0  0  0  0  0  0  0  0  0  0  0
    5.8091    2.8503    4.6372 H   0  0  0  0  0  0  0  0  0  0  0  0
    3.5584    3.5763    3.1547 H   0  0  0  0  0  0  0  0  0  0  0  0
    4.5041    4.1666    1.8088 H   0  0  0  0  0  0  0  0  0  0  0  0
    2.2931    3.3817    1.0895 H   0  0  0  0  0  0  0  0  0  0  0  0
    3.5840    2.4502    0.3681 H   0  0  0  0  0  0  0  0  0  0  0  0
    1.9169    1.5974    2.7140 H   0  0  0  0  0  0  0  0  0  0  0  0
   -2.3730   -0.1524    0.4073 H   0  0  0  0  0  0  0  0  0  0  0  0
   -1.5014    0.8774   -2.3314 H   0  0  0  0  0  0  0  0  0  0  0  0
   -3.0670    1.0837   -1.5828 H   0  0  0  0  0  0  0  0  0  0  0  0
   -2.3950   -1.2147   -3.2588 H   0  0  0  0  0  0  0  0  0  0  0  0
   -4.7123   -0.7032   -2.7532 H   0  0  0  0  0  0  0  0  0  0  0  0
   -4.4290   -1.0670   -1.0675 H   0  0  0  0  0  0  0  0  0  0  0  0
   -3.9182   -3.4531   -1.8025 H   0  0  0  0  0  0  0  0  0  0  0  0
   -4.6960   -4.2386   -3.9877 H   0  0  0  0  0  0  0  0  0  0  0  0
   -5.2108   -2.6332   -4.4478 H   0  0  0  0  0  0  0  0  0  0  0  0
   -6.7762   -2.5528   -2.4160 H   0  0  0  0  0  0  0  0  0  0  0  0
   -6.2613   -4.1582   -1.9559 H   0  0  0  0  0  0  0  0  0  0  0  0
   -2.2070   -2.3887   -0.5957 H   0  0  0  0  0  0  0  0  0  0  0  0
   -0.8082   -1.9292   -1.5371 H   0  0  0  0  0  0  0  0  0  0  0  0
    3.9600    0.0515    1.1502 H   0  0  0  0  0  0  0  0  0  0  0  0
    2.9183   -0.6062    2.3896 H   0  0  0  0  0  0  0  0  0  0  0  0
    3.9958    0.7857    4.0645 H   0  0  0  0  0  0  0  0  0  0  0  0
    5.1857   -0.1818    3.2265 H   0  0  0  0  0  0  0  0  0  0  0  0
  1 22  1  0  0  0  0
  2  6  1  0  0  0  0
  4  7  1  0  0  0  0
  4 21  1  0  0  0  0
  4  1  2  0  0  0  0
  4  5  2  6  0  0  0
  7  8  1  0  0  0  0
  7 23  1  0  0  0  0
  7 24  1  0  0  0  0
  8  9  1  0  0  0  0
  8 25  1  0  0  0  0
  8 26  1  0  0  0  0
  9 10  1  0  0  0  0
  9 20  1  0  0  0  0
  9 27  1  1  0  0  0
 10  3  1  0  0  0  0
 10  2  2  0  0  0  0
 11  6  1  0  0  0  0
 11 12  1  0  0  0  0
 11  3  2  0  0  0  0
 12 13  1  0  0  0  0
 12 19  1  0  0  0  0
 12 28  1  1  0  0  0
 13 14  1  0  0  0  0
 13 29  1  0  0  0  0
 13 30  1  0  0  0  0
 14 15  1  0  0  0  0
 14 19  1  0  0  0  0
 14 31  1  6  0  0  0
 15 16  1  0  0  0  0
 15 32  1  0  0  0  0
 15 33  1  0  0  0  0
 16 17  1  0  0  0  0
 16 18  1  0  0  0  0
 16 34  1  0  0  0  0
 17 18  1  0  0  0  0
 17 35  1  0  0  0  0
 17 36  1  0  0  0  0
 18 37  1  0  0  0  0
 18 38  1  0  0  0  0
 19 39  1  0  0  0  0
 19 40  1  0  0  0  0
 20 21  1  0  0  0  0
 20 41  1  0  0  0  0
 20 42  1  0  0  0  0
 21 43  1  0  0  0  0
 21 44  1  0  0  0  0
M  END
>  <score>
0.45101720094680786

$$$$
PV-004011521434
 OpenBabel08202115463D

 58 59  0  0  0  0  0  0  0  0999 V2000
   -7.3189   -2.9212   -3.7468 C   0  0  0  0  0  0  0  0  0  0  0  0
   -6.3505   -2.7766   -2.5842 C   0  0  0  0  0  0  0  0  0  0  0  0
   -5.0647   -3.5317   -2.7905 C   0  0  0  0  0  0  0  0  0  0  0  0
   -3.8092   -3.0207   -2.6547 C   0  0  0  0  0  0  0  0  0  0  0  0
   -3.3440   -1.5965   -2.3690 C   0  0  0  0  0  0  0  0  0  0  0  0
   -1.3254   -0.2718   -1.9808 C   0  0  0  0  0  0  0  0  0  0  0  0
   -1.0152   -0.2511   -0.5046 C   0  0  0  0  0  0  0  0  0  0  0  0
   -0.1981    0.9564   -0.0778 C   0  0  1  0  0  0  0  0  0  0  0  0
    0.0630    0.8815    1.4212 C   0  0  0  0  0  0  0  0  0  0  0  0
    0.9965    1.9930    1.8791 C   0  0  0  0  0  0  0  0  0  0  0  0
    3.4504    1.8802    1.6317 C   0  0  0  0  0  0  0  0  0  0  0  0
    3.4986    1.7415    3.1299 C   0  0  0  0  0  0  0  0  0  0  0  0
    4.8424    1.2369    3.6393 C   0  0  0  0  0  0  0  0  0  0  0  0
    4.8122    0.9734    5.1403 C   0  0  0  0  0  0  0  0  0  0  0  0
    5.9531    2.2053    3.2721 C   0  0  0  0  0  0  0  0  0  0  0  0
    2.0163    2.0910   -0.3642 C   0  0  2  0  0  0  0  0  0  0  0  0
    1.3632    3.4348   -0.6792 C   0  0  0  0  0  0  0  0  0  0  0  0
    1.1126    0.9687   -0.8421 C   0  0  0  0  0  0  0  0  0  0  0  0
   -3.7159   -5.1267   -3.2285 C   0  0  0  0  0  0  0  0  0  0  0  0
   -4.1492   -0.6930   -2.1517 O   0  0  0  0  0  0  0  0  0  0  0  0
    4.4761    1.8198    0.9550 O   0  0  0  0  0  0  0  0  0  0  0  0
    5.2193    0.0280    2.9305 O   0  0  0  0  0  0  0  0  0  0  0  0
   -2.0126   -1.4877   -2.3898 N   0  0  0  0  0  0  0  0  0  0  0  0
    2.2290    1.9819    1.0817 N   0  0  0  0  0  0  0  0  0  0  0  0
   -2.9517   -4.0523   -2.9407 N   0  0  0  0  0  0  0  0  0  0  0  0
   -5.0058   -4.8567   -3.1484 N   0  0  0  0  0  0  0  0  0  0  0  0
   -6.8103   -2.7088   -4.6639 H   0  0  0  0  0  0  0  0  0  0  0  0
   -8.1304   -2.2350   -3.6221 H   0  0  0  0  0  0  0  0  0  0  0  0
   -7.6979   -3.9215   -3.7727 H   0  0  0  0  0  0  0  0  0  0  0  0
   -6.8240   -3.1458   -1.6986 H   0  0  0  0  0  0  0  0  0  0  0  0
   -6.1199   -1.7391   -2.4600 H   0  0  0  0  0  0  0  0  0  0  0  0
   -1.4801   -2.2534   -2.6909 H   0  0  0  0  0  0  0  0  0  0  0  0
   -1.9471    0.5677   -2.2124 H   0  0  0  0  0  0  0  0  0  0  0  0
   -0.4073   -0.1972   -2.5252 H   0  0  0  0  0  0  0  0  0  0  0  0
   -0.4654   -1.1361   -0.2610 H   0  0  0  0  0  0  0  0  0  0  0  0
   -1.9386   -0.2441    0.0360 H   0  0  0  0  0  0  0  0  0  0  0  0
   -0.7422    1.8514   -0.2966 H   0  0  0  0  0  0  0  0  0  0  0  0
    0.5092   -0.0638    1.6498 H   0  0  0  0  0  0  0  0  0  0  0  0
   -0.8676    0.9723    1.9414 H   0  0  0  0  0  0  0  0  0  0  0  0
    0.5070    2.9370    1.7595 H   0  0  0  0  0  0  0  0  0  0  0  0
    1.2417    1.8459    2.9102 H   0  0  0  0  0  0  0  0  0  0  0  0
    2.7388    1.0516    3.4326 H   0  0  0  0  0  0  0  0  0  0  0  0
    3.3064    2.6990    3.5670 H   0  0  0  0  0  0  0  0  0  0  0  0
    5.7086    0.4675    5.4322 H   0  0  0  0  0  0  0  0  0  0  0  0
    3.9654    0.3642    5.3783 H   0  0  0  0  0  0  0  0  0  0  0  0
    4.7413    1.9038    5.6641 H   0  0  0  0  0  0  0  0  0  0  0  0
    5.8243    3.1188    3.8142 H   0  0  0  0  0  0  0  0  0  0  0  0
    5.9179    2.4063    2.2217 H   0  0  0  0  0  0  0  0  0  0  0  0
    6.8997    1.7732    3.5215 H   0  0  0  0  0  0  0  0  0  0  0  0
    4.4928   -0.2548    2.3704 H   0  0  0  0  0  0  0  0  0  0  0  0
    2.9587    2.0253   -0.8668 H   0  0  0  0  0  0  0  0  0  0  0  0
    0.3450    3.4229   -0.3504 H   0  0  0  0  0  0  0  0  0  0  0  0
    1.3948    3.6078   -1.7347 H   0  0  0  0  0  0  0  0  0  0  0  0
    1.8920    4.2154   -0.1734 H   0  0  0  0  0  0  0  0  0  0  0  0
    1.6108    0.0331   -0.6954 H   0  0  0  0  0  0  0  0  0  0  0  0
    0.9080    1.1049   -1.8835 H   0  0  0  0  0  0  0  0  0  0  0  0
   -1.9724   -4.0161   -2.9368 H   0  0  0  0  0  0  0  0  0  0  0  0
   -3.3331   -6.0593   -3.4838 H   0  0  0  0  0  0  0  0  0  0  0  0
  1  2  1  0  0  0  0
  1 27  1  0  0  0  0
  1 28  1  0  0  0  0
  1 29  1  0  0  0  0
  2  3  1  0  0  0  0
  2 30  1  0  0  0  0
  2 31  1  0  0  0  0
  3 26  1  0  0  0  0
  3  4  2  0  0  0  0
  4  5  1  0  0  0  0
  4 25  1  0  0  0  0
  5 23  1  0  0  0  0
  5 20  2  0  0  0  0
  6 23  1  0  0  0  0
  6  7  1  0  0  0  0
  6 33  1  0  0  0  0
  6 34  1  0  0  0  0
  7  8  1  0  0  0  0
  7 35  1  0  0  0  0
  7 36  1  0  0  0  0
  8  9  1  0  0  0  0
  8 18  1  0  0  0  0
  8 37  1  6  0  0  0
  9 10  1  0  0  0  0
  9 38  1  0  0  0  0
  9 39  1  0  0  0  0
 10 24  1  0  0  0  0
 10 40  1  0  0  0  0
 10 41  1  0  0  0  0
 11 24  1  0  0  0  0
 11 12  1  0  0  0  0
 11 21  2  0  0  0  0
 12 13  1  0  0  0  0
 12 42  1  0  0  0  0
 12 43  1  0  0  0  0
 13 14  1  0  0  0  0
 13 15  1  0  0  0  0
 13 22  1  0  0  0  0
 14 44  1  0  0  0  0
 14 45  1  0  0  0  0
 14 46  1  0  0  0  0
 15 47  1  0  0  0  0
 15 48  1  0  0  0  0
 15 49  1  0  0  0  0
 16 24  1  0  0  0  0
 16 17  1  0  0  0  0
 16 18  1  0  0  0  0
 16 51  1  6  0  0  0
 17 52  1  0  0  0  0
 17 53  1  0  0  0  0
 17 54  1  0  0  0  0
 18 55  1  0  0  0  0
 18 56  1  0  0  0  0
 19 25  1  0  0  0  0
 19 58  1  0  0  0  0
 19 26  2  0  0  0  0
 22 50  1  0  0  0  0
 23 32  1  0  0  0  0
 25 57  1  0  0  0  0
M  END
>  <score>
0.4510352611541748

$$$$
PV-004022243938
 OpenBabel08202115463D

 56 58  0  0  0  0  0  0  0  0999 V2000
   -1.2427    1.4266   -1.3564 C   0  0  0  0  0  0  0  0  0  0  0  0
   -0.3837    0.5938   -0.4202 C   0  0  1  0  0  0  0  0  0  0  0  0
   -0.4720   -0.8886   -0.7266 C   0  0  0  0  0  0  0  0  0  0  0  0
   -2.3796   -1.9504    0.4651 C   0  0  0  0  0  0  0  0  0  0  0  0
   -2.5423   -1.2589   -1.9103 C   0  0  0  0  0  0  0  0  0  0  0  0
   -3.9436   -1.8083   -1.8873 C   0  0  0  0  0  0  0  0  0  0  0  0
   -4.6555   -1.6944   -3.2401 C   0  0  0  0  0  0  0  0  0  0  0  0
   -6.1166   -2.0498   -3.1693 C   0  0  0  0  0  0  0  0  0  0  0  0
   -6.7430   -3.0088   -3.8683 C   0  0  0  0  0  0  0  0  0  0  0  0
   -8.2561   -2.0708   -2.6000 C   0  0  0  0  0  0  0  0  0  0  0  0
   -7.1001   -1.4342   -2.3485 C   0  0  0  0  0  0  0  0  0  0  0  0
    1.6456    1.3587    0.6725 C   0  0  0  0  0  0  0  0  0  0  0  0
    3.0605    1.8550    0.5063 C   0  0  0  0  0  0  0  0  0  0  0  0
    4.0330    1.4672    1.6358 C   0  0  2  0  0  0  0  0  0  0  0  0
    3.6837    2.2292    2.9195 C   0  0  0  0  0  0  0  0  0  0  0  0
    4.6332    1.7774    4.0352 C   0  0  0  0  0  0  0  0  0  0  0  0
    5.6014    0.7316    3.4742 C   0  0  2  0  0  0  0  0  0  0  0  0
    6.4266    1.3546    2.3446 C   0  0  0  0  0  0  0  0  0  0  0  0
    5.4818    1.8057    1.2259 C   0  0  0  0  0  0  0  0  0  0  0  0
    3.9462   -0.0374    1.9153 C   0  0  0  0  0  0  0  0  0  0  0  0
   -1.8531   -1.3726   -0.7656 N   0  0  0  0  0  0  0  0  0  0  0  0
    0.9990    1.0416   -0.4662 N   0  0  0  0  0  0  0  0  0  0  0  0
   -2.0767   -0.7426   -2.9228 O   0  0  0  0  0  0  0  0  0  0  0  0
   -8.0738   -3.0520   -3.5375 O   0  0  0  0  0  0  0  0  0  0  0  0
    1.1354    1.2575    1.7767 O   0  0  0  0  0  0  0  0  0  0  0  0
    4.8578   -0.3765    2.9626 O   0  0  0  0  0  0  0  0  0  0  0  0
   -0.8349    1.3876   -2.3449 H   0  0  0  0  0  0  0  0  0  0  0  0
   -1.2589    2.4413   -1.0173 H   0  0  0  0  0  0  0  0  0  0  0  0
   -2.2394    1.0374   -1.3665 H   0  0  0  0  0  0  0  0  0  0  0  0
   -0.7499    0.7424    0.5741 H   0  0  0  0  0  0  0  0  0  0  0  0
    0.0589   -1.4273    0.0302 H   0  0  0  0  0  0  0  0  0  0  0  0
   -0.0183   -1.0695   -1.6786 H   0  0  0  0  0  0  0  0  0  0  0  0
   -2.1073   -2.9838    0.5196 H   0  0  0  0  0  0  0  0  0  0  0  0
   -3.4459   -1.8620    0.4727 H   0  0  0  0  0  0  0  0  0  0  0  0
   -1.9720   -1.4296    1.3062 H   0  0  0  0  0  0  0  0  0  0  0  0
   -4.5096   -1.2674   -1.1580 H   0  0  0  0  0  0  0  0  0  0  0  0
   -3.8999   -2.8412   -1.6114 H   0  0  0  0  0  0  0  0  0  0  0  0
   -4.1776   -2.3547   -3.9332 H   0  0  0  0  0  0  0  0  0  0  0  0
   -4.5667   -0.6863   -3.5878 H   0  0  0  0  0  0  0  0  0  0  0  0
   -6.2842   -3.6318   -4.5633 H   0  0  0  0  0  0  0  0  0  0  0  0
   -9.1646   -1.8488   -2.1452 H   0  0  0  0  0  0  0  0  0  0  0  0
   -6.9539   -0.6470   -1.6848 H   0  0  0  0  0  0  0  0  0  0  0  0
    1.4615    1.1130   -1.3273 H   0  0  0  0  0  0  0  0  0  0  0  0
    3.0311    2.9230    0.4482 H   0  0  0  0  0  0  0  0  0  0  0  0
    3.4440    1.4579   -0.4103 H   0  0  0  0  0  0  0  0  0  0  0  0
    2.6730    2.0175    3.1997 H   0  0  0  0  0  0  0  0  0  0  0  0
    3.7961    3.2806    2.7554 H   0  0  0  0  0  0  0  0  0  0  0  0
    5.1855    2.6188    4.3985 H   0  0  0  0  0  0  0  0  0  0  0  0
    4.0672    1.3489    4.8358 H   0  0  0  0  0  0  0  0  0  0  0  0
    6.2610    0.4122    4.2538 H   0  0  0  0  0  0  0  0  0  0  0  0
    7.1151    0.6303    1.9621 H   0  0  0  0  0  0  0  0  0  0  0  0
    6.9674    2.1986    2.7191 H   0  0  0  0  0  0  0  0  0  0  0  0
    5.5769    2.8612    1.0781 H   0  0  0  0  0  0  0  0  0  0  0  0
    5.7281    1.2944    0.3187 H   0  0  0  0  0  0  0  0  0  0  0  0
    2.9498   -0.2885    2.2136 H   0  0  0  0  0  0  0  0  0  0  0  0
    4.2015   -0.5807    1.0296 H   0  0  0  0  0  0  0  0  0  0  0  0
  1  2  1  0  0  0  0
  1 27  1  0  0  0  0
  1 28  1  0  0  0  0
  1 29  1  0  0  0  0
  2  3  1  0  0  0  0
  2 22  1  0  0  0  0
  2 30  1  1  0  0  0
  3 21  1  0  0  0  0
  3 31  1  0  0  0  0
  3 32  1  0  0  0  0
  4 21  1  0  0  0  0
  4 33  1  0  0  0  0
  4 34  1  0  0  0  0
  4 35  1  0  0  0  0
  5 21  1  0  0  0  0
  5  6  1  0  0  0  0
  5 23  2  0  0  0  0
  6  7  1  0  0  0  0
  6 36  1  0  0  0  0
  6 37  1  0  0  0  0
  7  8  1  0  0  0  0
  7 38  1  0  0  0  0
  7 39  1  0  0  0  0
  8 11  1  0  0  0  0
  8  9  2  0  0  0  0
  9 24  1  0  0  0  0
  9 40  1  0  0  0  0
 10 24  1  0  0  0  0
 10 41  1  0  0  0  0
 10 11  2  0  0  0  0
 11 42  1  0  0  0  0
 12 22  1  0  0  0  0
 12 13  1  0  0  0  0
 12 25  2  0  0  0  0
 13 44  1  0  0  0  0
 13 45  1  0  0  0  0
 14 13  1  6  0  0  0
 14 15  1  0  0  0  0
 14 19  1  0  0  0  0
 14 20  1  0  0  0  0
 15 16  1  0  0  0  0
 15 46  1  0  0  0  0
 15 47  1  0  0  0  0
 16 17  1  0  0  0  0
 16 48  1  0  0  0  0
 16 49  1  0  0  0  0
 17 18  1  0  0  0  0
 17 26  1  0  0  0  0
 17 50  1  1  0  0  0
 18 19  1  0  0  0  0
 18 51  1  0  0  0  0
 18 52  1  0  0  0  0
 19 53  1  0  0  0  0
 19 54  1  0  0  0  0
 20 26  1  0  0  0  0
 20 55  1  0  0  0  0
 20 56  1  0  0  0  0
 22 43  1  0  0  0  0
M  END
>  <score>
0.45109611749649048

$$$$
Z3551988740
 OpenBabel08202115463D

 43 45  0  0  0  0  0  0  0  0999 V2000
   -1.6281    1.0104   -0.8919 O   0  0  0  0  0  0  0  0  0  0  0  0
   -0.0973   -0.3770   -0.0338 O   0  0  0  0  0  0  0  0  0  0  0  0
    6.1123    3.6995    2.2623 O   0  0  0  0  0  0  0  0  0  0  0  0
   -1.2714   -0.1149   -0.6556 C   0  0  0  0  0  0  0  0  0  0  0  0
    0.8595    0.6947    0.1669 C   0  0  2  0  0  0  0  0  0  0  0  0
    2.2898    0.0933    0.2321 C   0  0  0  0  0  0  0  0  0  0  0  0
    3.3666    1.1515    0.6349 C   0  0  0  0  0  0  0  0  0  0  0  0
    3.0195    1.9031    1.9504 C   0  0  2  0  0  0  0  0  0  0  0  0
    5.3155    2.7647    2.1933 C   0  0  0  0  0  0  0  0  0  0  0  0
    5.8010    1.3334    2.1512 C   0  0  0  0  0  0  0  0  0  0  0  0
    1.5893    2.5045    1.8853 C   0  0  0  0  0  0  0  0  0  0  0  0
    0.5125    1.4463    1.4824 C   0  0  0  0  0  0  0  0  0  0  0  0
   -2.0005   -1.3664   -0.9776 C   0  0  0  0  0  0  0  0  0  0  0  0
   -1.4817   -2.6162   -0.6864 C   0  0  0  0  0  0  0  0  0  0  0  0
   -3.3418   -3.5876   -1.5733 C   0  0  0  0  0  0  0  0  0  0  0  0
   -3.8607   -2.3379   -1.8646 C   0  0  0  0  0  0  0  0  0  0  0  0
   -6.0169   -1.1750   -2.4473 C   0  0  0  0  0  0  0  0  0  0  0  0
   -7.1561   -1.6062   -3.0573 C   0  0  0  0  0  0  0  0  0  0  0  0
   -5.7834   -3.2390   -3.1244 C   0  0  0  0  0  0  0  0  0  0  0  0
    3.9849    2.9845    2.1531 N   0  0  0  0  0  0  0  0  0  0  0  0
   -2.1493   -3.7388   -0.9829 N   0  0  0  0  0  0  0  0  0  0  0  0
   -5.1420   -2.2301   -2.4985 N   0  0  0  0  0  0  0  0  0  0  0  0
   -7.0101   -2.9050   -3.4803 N   0  0  0  0  0  0  0  0  0  0  0  0
   -3.1931   -1.2152   -1.5682 N   0  0  0  0  0  0  0  0  0  0  0  0
    5.4483    0.6688    3.2504 F   0  0  0  0  0  0  0  0  0  0  0  0
    7.1284    1.2737    2.0841 F   0  0  0  0  0  0  0  0  0  0  0  0
    5.3212    0.6536    1.1090 F   0  0  0  0  0  0  0  0  0  0  0  0
    0.8050    1.3803   -0.6527 H   0  0  0  0  0  0  0  0  0  0  0  0
    2.2975   -0.6958    0.9546 H   0  0  0  0  0  0  0  0  0  0  0  0
    2.5401   -0.3013   -0.7305 H   0  0  0  0  0  0  0  0  0  0  0  0
    4.3035    0.6513    0.7654 H   0  0  0  0  0  0  0  0  0  0  0  0
    3.4515    1.8685   -0.1548 H   0  0  0  0  0  0  0  0  0  0  0  0
    3.0740    1.2175    2.7701 H   0  0  0  0  0  0  0  0  0  0  0  0
    3.6533    3.9001    2.2633 H   0  0  0  0  0  0  0  0  0  0  0  0
    1.5817    3.2937    1.1628 H   0  0  0  0  0  0  0  0  0  0  0  0
    1.3390    2.8991    2.8479 H   0  0  0  0  0  0  0  0  0  0  0  0
    0.4276    0.7293    2.2721 H   0  0  0  0  0  0  0  0  0  0  0  0
   -0.4243    1.9465    1.3519 H   0  0  0  0  0  0  0  0  0  0  0  0
   -0.5514   -2.6852   -0.2265 H   0  0  0  0  0  0  0  0  0  0  0  0
   -3.8940   -4.4337   -1.8201 H   0  0  0  0  0  0  0  0  0  0  0  0
   -5.8458   -0.2384   -2.0289 H   0  0  0  0  0  0  0  0  0  0  0  0
   -8.0147   -1.0333   -3.1846 H   0  0  0  0  0  0  0  0  0  0  0  0
   -5.3603   -4.1716   -3.3054 H   0  0  0  0  0  0  0  0  0  0  0  0
  4  2  1  0  0  0  0
  4 13  1  0  0  0  0
  4  1  2  0  0  0  0
  5  2  1  0  0  0  0
  5  6  1  0  0  0  0
  5 12  1  0  0  0  0
  5 28  1  6  0  0  0
  6  7  1  0  0  0  0
  6 29  1  0  0  0  0
  6 30  1  0  0  0  0
  7  8  1  0  0  0  0
  7 31  1  0  0  0  0
  7 32  1  0  0  0  0
  8 20  1  0  0  0  0
  8 11  1  0  0  0  0
  8 33  1  1  0  0  0
  9 20  1  0  0  0  0
  9 10  1  0  0  0  0
  9  3  2  0  0  0  0
 10 25  1  0  0  0  0
 10 26  1  0  0  0  0
 10 27  1  0  0  0  0
 11 12  1  0  0  0  0
 11 35  1  0  0  0  0
 11 36  1  0  0  0  0
 12 37  1  0  0  0  0
 12 38  1  0  0  0  0
 13 24  1  0  0  0  0
 13 14  2  0  0  0  0
 14 21  1  0  0  0  0
 14 39  1  0  0  0  0
 15 16  1  0  0  0  0
 15 40  1  0  0  0  0
 15 21  2  0  0  0  0
 16 22  1  0  0  0  0
 16 24  2  0  0  0  0
 17 22  1  0  0  0  0
 17 41  1  0  0  0  0
 17 18  2  0  0  0  0
 18 23  1  0  0  0  0
 18 42  1  0  0  0  0
 19 22  1  0  0  0  0
 19 43  1  0  0  0  0
 19 23  2  0  0  0  0
 20 34  1  0  0  0  0
M  END
>  <score>
0.45113009214401245

$$$$
PV-003981015270
 OpenBabel08202115463D

 53 55  0  0  0  0  0  0  0  0999 V2000
    5.0242    1.8540    4.1270 C   0  0  0  0  0  0  0  0  0  0  0  0
    5.0952    2.0461    2.5920 C   0  0  0  0  0  0  0  0  0  0  0  0
    3.7432    2.4979    2.0754 C   0  0  0  0  0  0  0  0  0  0  0  0
    1.4692    1.8079    1.4222 C   0  0  0  0  0  0  0  0  0  0  0  0
    1.4129    1.7175   -0.1036 C   0  0  1  0  0  0  0  0  0  0  0  0
    1.8195    0.3221   -0.5866 C   0  0  0  0  0  0  0  0  0  0  0  0
   -0.5369    0.4181   -0.4936 C   0  0  2  0  0  0  0  0  0  0  0  0
   -1.6389    0.1819   -1.4965 C   0  0  0  0  0  0  0  0  0  0  0  0
   -3.4389   -1.4521   -1.8254 C   0  0  0  0  0  0  0  0  0  0  0  0
   -3.8294   -2.9163   -1.7732 C   0  0  0  0  0  0  0  0  0  0  0  0
   -5.3019   -3.1797   -1.9615 C   0  0  0  0  0  0  0  0  0  0  0  0
   -5.8260   -3.5216   -3.1959 C   0  0  0  0  0  0  0  0  0  0  0  0
   -7.1849   -3.7456   -3.3014 C   0  0  0  0  0  0  0  0  0  0  0  0
   -7.9686   -3.6191   -2.1694 C   0  0  0  0  0  0  0  0  0  0  0  0
   -7.3619   -3.2775   -0.9757 C   0  0  0  0  0  0  0  0  0  0  0  0
   -0.0023    1.8536   -0.6010 C   0  0  0  0  0  0  0  0  0  0  0  0
    5.7026    0.8439    1.8255 C   0  0  0  0  0  0  0  0  0  0  0  0
    6.5347    1.8649    1.0071 C   0  0  0  0  0  0  0  0  0  0  0  0
    6.2825    2.9127    2.1127 C   0  0  0  0  0  0  0  0  0  0  0  0
    3.4967    3.6866    1.8895 O   0  0  0  0  0  0  0  0  0  0  0  0
    0.5747   -0.3870   -0.7784 O   0  0  0  0  0  0  0  0  0  0  0  0
   -4.2226   -0.5965   -2.2345 O   0  0  0  0  0  0  0  0  0  0  0  0
   -9.3094   -3.8161   -2.1794 O   0  0  0  0  0  0  0  0  0  0  0  0
    2.8567    1.5260    1.8417 N   0  0  0  0  0  0  0  0  0  0  0  0
   -2.2044   -1.1652   -1.4025 N   0  0  0  0  0  0  0  0  0  0  0  0
   -6.0491   -3.0579   -0.8551 N   0  0  0  0  0  0  0  0  0  0  0  0
    4.3214    1.0809    4.3580 H   0  0  0  0  0  0  0  0  0  0  0  0
    4.7120    2.7685    4.5865 H   0  0  0  0  0  0  0  0  0  0  0  0
    5.9900    1.5799    4.4969 H   0  0  0  0  0  0  0  0  0  0  0  0
    3.1370    0.5935    1.9526 H   0  0  0  0  0  0  0  0  0  0  0  0
    1.1860    2.7900    1.7389 H   0  0  0  0  0  0  0  0  0  0  0  0
    0.8054    1.0882    1.8538 H   0  0  0  0  0  0  0  0  0  0  0  0
    2.0434    2.4699   -0.5295 H   0  0  0  0  0  0  0  0  0  0  0  0
    2.3609    0.3863   -1.5072 H   0  0  0  0  0  0  0  0  0  0  0  0
    2.4220   -0.1690    0.1487 H   0  0  0  0  0  0  0  0  0  0  0  0
   -0.9036    0.2230    0.4925 H   0  0  0  0  0  0  0  0  0  0  0  0
   -1.2421    0.3192   -2.4807 H   0  0  0  0  0  0  0  0  0  0  0  0
   -2.4186    0.8939   -1.3233 H   0  0  0  0  0  0  0  0  0  0  0  0
   -1.6586   -1.8813   -1.0159 H   0  0  0  0  0  0  0  0  0  0  0  0
   -3.5402   -3.3050   -0.8191 H   0  0  0  0  0  0  0  0  0  0  0  0
   -3.2968   -3.4315   -2.5451 H   0  0  0  0  0  0  0  0  0  0  0  0
   -5.2085   -3.6081   -4.0282 H   0  0  0  0  0  0  0  0  0  0  0  0
   -7.6102   -4.0044   -4.2145 H   0  0  0  0  0  0  0  0  0  0  0  0
   -9.7300   -3.1883   -1.5874 H   0  0  0  0  0  0  0  0  0  0  0  0
   -7.9573   -3.1866   -0.1279 H   0  0  0  0  0  0  0  0  0  0  0  0
   -0.5654    2.5222    0.0161 H   0  0  0  0  0  0  0  0  0  0  0  0
   -0.0238    2.1985   -1.6136 H   0  0  0  0  0  0  0  0  0  0  0  0
    6.2834    0.1784    2.4293 H   0  0  0  0  0  0  0  0  0  0  0  0
    4.9978    0.2809    1.2500 H   0  0  0  0  0  0  0  0  0  0  0  0
    7.5626    1.5957    0.8812 H   0  0  0  0  0  0  0  0  0  0  0  0
    6.1124    2.1167    0.0568 H   0  0  0  0  0  0  0  0  0  0  0  0
    7.0772    3.0086    2.8228 H   0  0  0  0  0  0  0  0  0  0  0  0
    6.0074    3.8816    1.7515 H   0  0  0  0  0  0  0  0  0  0  0  0
  1  2  1  0  0  0  0
  1 27  1  0  0  0  0
  1 28  1  0  0  0  0
  1 29  1  0  0  0  0
  2  3  1  0  0  0  0
  2 17  1  0  0  0  0
  2 19  1  0  0  0  0
  3 24  1  0  0  0  0
  3 20  2  0  0  0  0
  4 24  1  0  0  0  0
  4  5  1  0  0  0  0
  4 31  1  0  0  0  0
  4 32  1  0  0  0  0
  5  6  1  0  0  0  0
  5 16  1  0  0  0  0
  5 33  1  6  0  0  0
  6 21  1  0  0  0  0
  6 34  1  0  0  0  0
  6 35  1  0  0  0  0
  7 21  1  0  0  0  0
  7  8  1  0  0  0  0
  7 16  1  0  0  0  0
  7 36  1  1  0  0  0
  8 25  1  0  0  0  0
  8 37  1  0  0  0  0
  8 38  1  0  0  0  0
  9 25  1  0  0  0  0
  9 10  1  0  0  0  0
  9 22  2  0  0  0  0
 10 11  1  0  0  0  0
 10 40  1  0  0  0  0
 10 41  1  0  0  0  0
 11 26  1  0  0  0  0
 11 12  2  0  0  0  0
 12 13  1  0  0  0  0
 12 42  1  0  0  0  0
 13 43  1  0  0  0  0
 13 14  2  0  0  0  0
 14 23  1  0  0  0  0
 14 15  1  0  0  0  0
 15 45  1  0  0  0  0
 15 26  2  0  0  0  0
 16 46  1  0  0  0  0
 16 47  1  0  0  0  0
 17 18  1  0  0  0  0
 17 48  1  0  0  0  0
 17 49  1  0  0  0  0
 18 19  1  0  0  0  0
 18 50  1  0  0  0  0
 18 51  1  0  0  0  0
 19 52  1  0  0  0  0
 19 53  1  0  0  0  0
 23 44  1  0  0  0  0
 24 30  1  0  0  0  0
 25 39  1  0  0  0  0
M  END
>  <score>
0.4511641263961792

$$$$
Z4066370789
 OpenBabel08202115463D

 60 63  0  0  0  0  0  0  0  0999 V2000
    0.5908    2.4489   -0.9317 O   0  0  0  0  0  0  0  0  0  0  0  0
   -5.0867   -0.0586   -3.2295 O   0  0  0  0  0  0  0  0  0  0  0  0
    0.3161    1.3975   -0.3550 C   0  0  0  0  0  0  0  0  0  0  0  0
    1.4149    0.5564    0.2328 C   0  0  1  0  0  0  0  0  0  0  0  0
    2.7383    0.9242   -0.4338 C   0  0  0  0  0  0  0  0  0  0  0  0
    3.8887    0.1946    0.2497 C   0  0  0  0  0  0  0  0  0  0  0  0
    3.9532    0.4417    1.7641 C   0  0  0  0  0  0  0  0  0  0  0  0
    5.0287   -0.4736    2.4156 C   0  0  0  0  0  0  0  0  0  0  0  0
    5.2530   -0.1556    3.9008 C   0  0  0  0  0  0  0  0  0  0  0  0
    5.5594    1.3229    4.1549 C   0  0  0  0  0  0  0  0  0  0  0  0
    4.4777    2.2080    3.5418 C   0  0  0  0  0  0  0  0  0  0  0  0
    4.3270    1.9107    2.0542 C   0  0  0  0  0  0  0  0  0  0  0  0
    1.4816    0.7998    1.7322 C   0  0  0  0  0  0  0  0  0  0  0  0
   -2.0903    1.5021   -0.9440 C   0  0  0  0  0  0  0  0  0  0  0  0
   -2.7585    0.4914   -1.8425 C   0  0  0  0  0  0  0  0  0  0  0  0
   -3.7773   -1.6804   -2.0143 C   0  0  0  0  0  0  0  0  0  0  0  0
   -5.1645   -1.2178   -2.4043 C   0  0  2  0  0  0  0  0  0  0  0  0
   -5.9636   -2.3347   -3.0856 C   0  0  0  0  0  0  0  0  0  0  0  0
   -6.1114   -2.4599   -4.5696 C   0  0  0  0  0  0  0  0  0  0  0  0
   -7.2733   -2.0109   -3.7404 C   0  0  0  0  0  0  0  0  0  0  0  0
   -1.9587   -1.2906   -0.4869 C   0  0  0  0  0  0  0  0  0  0  0  0
   -1.2885   -0.3129    0.4453 C   0  0  0  0  0  0  0  0  0  0  0  0
    2.6182    0.0761    2.3281 N   0  0  0  0  0  0  0  0  0  0  0  0
   -0.9285    0.8988   -0.2891 N   0  0  0  0  0  0  0  0  0  0  0  0
   -3.1507   -0.7006   -1.0952 N   0  0  0  0  0  0  0  0  0  0  0  0
    1.2075   -0.4780    0.0541 H   0  0  0  0  0  0  0  0  0  0  0  0
    2.8926    1.9801   -0.3555 H   0  0  0  0  0  0  0  0  0  0  0  0
    2.7047    0.6437   -1.4658 H   0  0  0  0  0  0  0  0  0  0  0  0
    4.8076    0.5256   -0.1873 H   0  0  0  0  0  0  0  0  0  0  0  0
    3.7715   -0.8557    0.0821 H   0  0  0  0  0  0  0  0  0  0  0  0
    4.7113   -1.4916    2.3273 H   0  0  0  0  0  0  0  0  0  0  0  0
    5.9532   -0.3412    1.8934 H   0  0  0  0  0  0  0  0  0  0  0  0
    4.3691   -0.4190    4.4433 H   0  0  0  0  0  0  0  0  0  0  0  0
    6.0765   -0.7403    4.2542 H   0  0  0  0  0  0  0  0  0  0  0  0
    5.6003    1.4972    5.2098 H   0  0  0  0  0  0  0  0  0  0  0  0
    6.5041    1.5668    3.7157 H   0  0  0  0  0  0  0  0  0  0  0  0
    4.7483    3.2352    3.6702 H   0  0  0  0  0  0  0  0  0  0  0  0
    3.5469    2.0196    4.0348 H   0  0  0  0  0  0  0  0  0  0  0  0
    3.5596    2.5418    1.6571 H   0  0  0  0  0  0  0  0  0  0  0  0
    5.2552    2.1279    1.5682 H   0  0  0  0  0  0  0  0  0  0  0  0
    2.6305    0.2651    3.2896 H   0  0  0  0  0  0  0  0  0  0  0  0
    0.5732    0.4594    2.1838 H   0  0  0  0  0  0  0  0  0  0  0  0
    1.5994    1.8479    1.9127 H   0  0  0  0  0  0  0  0  0  0  0  0
   -1.7721    2.3400   -1.5284 H   0  0  0  0  0  0  0  0  0  0  0  0
   -2.7861    1.8293   -0.1999 H   0  0  0  0  0  0  0  0  0  0  0  0
   -3.6305    0.9335   -2.2773 H   0  0  0  0  0  0  0  0  0  0  0  0
   -2.0770    0.2090   -2.6176 H   0  0  0  0  0  0  0  0  0  0  0  0
   -3.8459   -2.6297   -1.5254 H   0  0  0  0  0  0  0  0  0  0  0  0
   -3.1758   -1.7743   -2.8942 H   0  0  0  0  0  0  0  0  0  0  0  0
   -5.6824   -0.9613   -1.5038 H   0  0  0  0  0  0  0  0  0  0  0  0
   -4.3514   -0.1487   -3.8401 H   0  0  0  0  0  0  0  0  0  0  0  0
   -5.9473   -3.2658   -2.5586 H   0  0  0  0  0  0  0  0  0  0  0  0
   -6.1227   -3.4277   -5.0258 H   0  0  0  0  0  0  0  0  0  0  0  0
   -5.6165   -1.7659   -5.2164 H   0  0  0  0  0  0  0  0  0  0  0  0
   -7.6082   -0.9961   -3.7938 H   0  0  0  0  0  0  0  0  0  0  0  0
   -8.1144   -2.6579   -3.6032 H   0  0  0  0  0  0  0  0  0  0  0  0
   -2.2425   -2.1622    0.0651 H   0  0  0  0  0  0  0  0  0  0  0  0
   -1.2711   -1.5652   -1.2594 H   0  0  0  0  0  0  0  0  0  0  0  0
   -1.9599   -0.0613    1.2395 H   0  0  0  0  0  0  0  0  0  0  0  0
   -0.4047   -0.7580    0.8522 H   0  0  0  0  0  0  0  0  0  0  0  0
  2 51  1  0  0  0  0
  3  4  1  0  0  0  0
  3 24  1  0  0  0  0
  3  1  2  0  0  0  0
  4  5  1  0  0  0  0
  4 13  1  0  0  0  0
  4 26  1  6  0  0  0
  5  6  1  0  0  0  0
  5 27  1  0  0  0  0
  5 28  1  0  0  0  0
  6  7  1  0  0  0  0
  6 29  1  0  0  0  0
  6 30  1  0  0  0  0
  7  8  1  0  0  0  0
  7 12  1  0  0  0  0
  7 23  1  0  0  0  0
  8  9  1  0  0  0  0
  8 31  1  0  0  0  0
  8 32  1  0  0  0  0
  9 10  1  0  0  0  0
  9 33  1  0  0  0  0
  9 34  1  0  0  0  0
 10 11  1  0  0  0  0
 10 35  1  0  0  0  0
 10 36  1  0  0  0  0
 11 12  1  0  0  0  0
 11 37  1  0  0  0  0
 11 38  1  0  0  0  0
 12 39  1  0  0  0  0
 12 40  1  0  0  0  0
 13 23  1  0  0  0  0
 13 42  1  0  0  0  0
 13 43  1  0  0  0  0
 14 24  1  0  0  0  0
 14 15  1  0  0  0  0
 14 44  1  0  0  0  0
 14 45  1  0  0  0  0
 15 25  1  0  0  0  0
 15 46  1  0  0  0  0
 15 47  1  0  0  0  0
 16 25  1  0  0  0  0
 16 17  1  0  0  0  0
 16 48  1  0  0  0  0
 16 49  1  0  0  0  0
 17  2  1  0  0  0  0
 17 18  1  0  0  0  0
 17 50  1  1  0  0  0
 18 19  1  0  0  0  0
 18 20  1  0  0  0  0
 18 52  1  0  0  0  0
 19 20  1  0  0  0  0
 19 53  1  0  0  0  0
 19 54  1  0  0  0  0
 20 55  1  0  0  0  0
 20 56  1  0  0  0  0
 21 25  1  0  0  0  0
 21 22  1  0  0  0  0
 21 57  1  0  0  0  0
 21 58  1  0  0  0  0
 22 24  1  0  0  0  0
 22 59  1  0  0  0  0
 22 60  1  0  0  0  0
 23 41  1  0  0  0  0
M  END
>  <score>
0.45119547843933105

$$$$
PV-003199672541
 OpenBabel08202115463D

 45 46  0  0  0  0  0  0  0  0999 V2000
    3.4277    0.2373    2.9147 O   0  0  0  0  0  0  0  0  0  0  0  0
   -0.5569   -1.9739   -0.7306 O   0  0  0  0  0  0  0  0  0  0  0  0
   -7.4612   -3.4428   -3.1286 O   0  0  0  0  0  0  0  0  0  0  0  0
    5.9057    0.1635    3.8039 O   0  0  0  0  0  0  0  0  0  0  0  0
    3.7889    1.0425    2.0502 C   0  0  0  0  0  0  0  0  0  0  0  0
    1.4942    1.1615    1.2321 C   0  0  1  0  0  0  0  0  0  0  0  0
    0.5905    2.2542    0.6720 C   0  0  0  0  0  0  0  0  0  0  0  0
   -0.6862    1.5083    0.2625 C   0  0  0  0  0  0  0  0  0  0  0  0
   -0.9716   -0.8342   -0.5240 C   0  0  0  0  0  0  0  0  0  0  0  0
   -2.4003   -0.4544   -0.8249 C   0  0  0  0  0  0  0  0  0  0  0  0
   -3.1572   -1.6312   -1.4184 C   0  0  0  0  0  0  0  0  0  0  0  0
   -4.6167   -1.3243   -1.7078 C   0  0  0  0  0  0  0  0  0  0  0  0
   -5.3235   -2.4269   -2.5300 C   0  0  0  0  0  0  0  0  0  0  0  0
   -6.8032   -2.2944   -2.6384 C   0  0  0  0  0  0  0  0  0  0  0  0
    1.2329   -0.0207    0.3043 C   0  0  0  0  0  0  0  0  0  0  0  0
    5.2131    1.4515    1.9485 C   0  0  0  0  0  0  0  0  0  0  0  0
    5.5796    2.3366    0.9286 C   0  0  0  0  0  0  0  0  0  0  0  0
    7.4997    1.4875    2.5650 C   0  0  0  0  0  0  0  0  0  0  0  0
    6.2009    1.0168    2.7932 C   0  0  0  0  0  0  0  0  0  0  0  0
    2.9012    1.5672    1.1813 N   0  0  0  0  0  0  0  0  0  0  0  0
   -0.1993    0.1466   -0.0226 N   0  0  0  0  0  0  0  0  0  0  0  0
    6.8297    2.7492    0.7394 N   0  0  0  0  0  0  0  0  0  0  0  0
    7.8031    2.3183    1.5712 N   0  0  0  0  0  0  0  0  0  0  0  0
   -5.0503   -3.6128   -1.9677 F   0  0  0  0  0  0  0  0  0  0  0  0
   -4.8125   -2.4229   -3.7694 F   0  0  0  0  0  0  0  0  0  0  0  0
    3.1977    2.2212    0.5145 H   0  0  0  0  0  0  0  0  0  0  0  0
    1.2273    0.9232    2.2405 H   0  0  0  0  0  0  0  0  0  0  0  0
    0.3775    2.9907    1.4184 H   0  0  0  0  0  0  0  0  0  0  0  0
    1.0439    2.7249   -0.1752 H   0  0  0  0  0  0  0  0  0  0  0  0
   -1.4000    1.5021    1.0596 H   0  0  0  0  0  0  0  0  0  0  0  0
   -1.1262    1.9490   -0.6076 H   0  0  0  0  0  0  0  0  0  0  0  0
   -2.4081    0.3561   -1.5235 H   0  0  0  0  0  0  0  0  0  0  0  0
   -2.8805   -0.1494    0.0813 H   0  0  0  0  0  0  0  0  0  0  0  0
   -3.1127   -2.4467   -0.7270 H   0  0  0  0  0  0  0  0  0  0  0  0
   -2.6817   -1.9133   -2.3344 H   0  0  0  0  0  0  0  0  0  0  0  0
   -4.6681   -0.4068   -2.2559 H   0  0  0  0  0  0  0  0  0  0  0  0
   -5.1312   -1.2133   -0.7763 H   0  0  0  0  0  0  0  0  0  0  0  0
   -7.0179   -1.4797   -3.2980 H   0  0  0  0  0  0  0  0  0  0  0  0
   -7.1910   -2.0776   -1.6650 H   0  0  0  0  0  0  0  0  0  0  0  0
   -7.0378   -4.2294   -2.7768 H   0  0  0  0  0  0  0  0  0  0  0  0
    1.4105   -0.9508    0.8024 H   0  0  0  0  0  0  0  0  0  0  0  0
    1.8400    0.0353   -0.5750 H   0  0  0  0  0  0  0  0  0  0  0  0
    4.8395    2.6884    0.2883 H   0  0  0  0  0  0  0  0  0  0  0  0
    8.2608    1.1739    3.2005 H   0  0  0  0  0  0  0  0  0  0  0  0
    6.0286   -0.7017    3.4066 H   0  0  0  0  0  0  0  0  0  0  0  0
  3 40  1  0  0  0  0
  4 45  1  0  0  0  0
  5 20  1  0  0  0  0
  5 16  1  0  0  0  0
  5  1  2  0  0  0  0
  6 20  1  0  0  0  0
  6  7  1  0  0  0  0
  6 15  1  0  0  0  0
  6 27  1  1  0  0  0
  7  8  1  0  0  0  0
  7 28  1  0  0  0  0
  7 29  1  0  0  0  0
  8 21  1  0  0  0  0
  8 30  1  0  0  0  0
  8 31  1  0  0  0  0
  9 21  1  0  0  0  0
  9 10  1  0  0  0  0
  9  2  2  0  0  0  0
 10 11  1  0  0  0  0
 10 32  1  0  0  0  0
 10 33  1  0  0  0  0
 11 12  1  0  0  0  0
 11 34  1  0  0  0  0
 11 35  1  0  0  0  0
 12 13  1  0  0  0  0
 12 36  1  0  0  0  0
 12 37  1  0  0  0  0
 13 24  1  0  0  0  0
 13 25  1  0  0  0  0
 13 14  1  0  0  0  0
 14  3  1  0  0  0  0
 14 38  1  0  0  0  0
 14 39  1  0  0  0  0
 15 21  1  0  0  0  0
 15 41  1  0  0  0  0
 15 42  1  0  0  0  0
 16 19  1  0  0  0  0
 16 17  2  0  0  0  0
 17 22  1  0  0  0  0
 17 43  1  0  0  0  0
 18 23  1  0  0  0  0
 18 44  1  0  0  0  0
 18 19  2  0  0  0  0
 19  4  1  0  0  0  0
 20 26  1  0  0  0  0
 22 23  2  0  0  0  0
M  END
>  <score>
0.45120829343795776

$$$$
Z4317419030
 OpenBabel08202115463D

 58 60  0  0  0  0  0  0  0  0999 V2000
    5.8206    4.1239    3.7922 C   0  0  0  0  0  0  0  0  0  0  0  0
    5.7561    2.7740    3.0964 C   0  0  1  0  0  0  0  0  0  0  0  0
    5.9991    1.6753    4.1233 C   0  0  0  0  0  0  0  0  0  0  0  0
    5.8063    0.3096    3.4909 C   0  0  0  0  0  0  0  0  0  0  0  0
    4.4380    0.1924    2.8438 C   0  0  0  0  0  0  0  0  0  0  0  0
    2.1494    0.8770    0.1527 C   0  0  0  0  0  0  0  0  0  0  0  0
    1.5571   -0.3574   -0.0362 C   0  0  0  0  0  0  0  0  0  0  0  0
    0.1787   -0.4555   -0.1452 C   0  0  0  0  0  0  0  0  0  0  0  0
   -0.6030    0.6819   -0.0703 C   0  0  0  0  0  0  0  0  0  0  0  0
   -2.1046    0.5765   -0.1949 C   0  0  0  0  0  0  0  0  0  0  0  0
   -2.8451   -0.9805   -1.9089 C   0  0  0  0  0  0  0  0  0  0  0  0
   -3.3094   -1.1710   -3.3310 C   0  0  1  0  0  0  0  0  0  0  0  0
   -3.0258   -2.3527   -4.2047 C   0  0  0  0  0  0  0  0  0  0  0  0
   -4.4313   -2.0572   -3.7730 C   0  0  1  0  0  0  0  0  0  0  0  0
   -5.0909   -2.9284   -2.7393 C   0  0  0  0  0  0  0  0  0  0  0  0
   -6.9286   -3.2568   -1.1490 C   0  0  0  0  0  0  0  0  0  0  0  0
   -7.3664   -2.5128   -3.3634 C   0  0  0  0  0  0  0  0  0  0  0  0
   -0.0091    1.9200    0.1192 C   0  0  0  0  0  0  0  0  0  0  0  0
    1.3652    2.0176    0.2278 C   0  0  0  0  0  0  0  0  0  0  0  0
    4.3944    2.6237    2.4331 C   0  0  0  0  0  0  0  0  0  0  0  0
    4.2481    1.2744    1.8738 N   0  0  0  0  0  0  0  0  0  0  0  0
   -2.5376    0.2780   -1.5597 N   0  0  0  0  0  0  0  0  0  0  0  0
   -6.4470   -2.4601   -2.2969 N   0  0  0  0  0  0  0  0  0  0  0  0
    3.9017    1.0011    0.2982 S   0  0  0  0  0  0  0  0  0  0  0  0
    4.4574   -0.2759   -0.0261 O   0  0  0  0  0  0  0  0  0  0  0  0
    4.3170    2.1643   -0.4226 O   0  0  0  0  0  0  0  0  0  0  0  0
   -2.7600   -1.9310   -1.1323 O   0  0  0  0  0  0  0  0  0  0  0  0
    5.4535    4.8831    3.1336 H   0  0  0  0  0  0  0  0  0  0  0  0
    6.8346    4.3407    4.0560 H   0  0  0  0  0  0  0  0  0  0  0  0
    5.2191    4.0980    4.6767 H   0  0  0  0  0  0  0  0  0  0  0  0
    6.5165    2.7226    2.3453 H   0  0  0  0  0  0  0  0  0  0  0  0
    6.9997    1.7541    4.4940 H   0  0  0  0  0  0  0  0  0  0  0  0
    5.3084    1.7899    4.9324 H   0  0  0  0  0  0  0  0  0  0  0  0
    6.5589    0.1611    2.7449 H   0  0  0  0  0  0  0  0  0  0  0  0
    5.9000   -0.4415    4.2472 H   0  0  0  0  0  0  0  0  0  0  0  0
    4.3628   -0.7500    2.3426 H   0  0  0  0  0  0  0  0  0  0  0  0
    3.6825    0.2567    3.5988 H   0  0  0  0  0  0  0  0  0  0  0  0
    2.1456   -1.2127   -0.0966 H   0  0  0  0  0  0  0  0  0  0  0  0
   -0.2673   -1.3848   -0.2834 H   0  0  0  0  0  0  0  0  0  0  0  0
   -2.5392    1.5067    0.1064 H   0  0  0  0  0  0  0  0  0  0  0  0
   -2.4478   -0.2040    0.4516 H   0  0  0  0  0  0  0  0  0  0  0  0
   -2.6032    0.9986   -2.2206 H   0  0  0  0  0  0  0  0  0  0  0  0
   -3.2856   -0.2536   -3.8812 H   0  0  0  0  0  0  0  0  0  0  0  0
   -2.5109   -3.2016   -3.8058 H   0  0  0  0  0  0  0  0  0  0  0  0
   -2.7376   -2.2070   -5.2248 H   0  0  0  0  0  0  0  0  0  0  0  0
   -5.0808   -1.6581   -4.5238 H   0  0  0  0  0  0  0  0  0  0  0  0
   -4.4546   -2.9658   -1.8799 H   0  0  0  0  0  0  0  0  0  0  0  0
   -5.1953   -3.9112   -3.1495 H   0  0  0  0  0  0  0  0  0  0  0  0
   -6.2545   -3.1411   -0.3261 H   0  0  0  0  0  0  0  0  0  0  0  0
   -6.9778   -4.2888   -1.4270 H   0  0  0  0  0  0  0  0  0  0  0  0
   -7.9020   -2.9171   -0.8627 H   0  0  0  0  0  0  0  0  0  0  0  0
   -6.9652   -1.9911   -4.2070 H   0  0  0  0  0  0  0  0  0  0  0  0
   -8.2856   -2.0538   -3.0646 H   0  0  0  0  0  0  0  0  0  0  0  0
   -7.5466   -3.5337   -3.6285 H   0  0  0  0  0  0  0  0  0  0  0  0
   -0.5976    2.7753    0.1795 H   0  0  0  0  0  0  0  0  0  0  0  0
    1.8111    2.9470    0.3660 H   0  0  0  0  0  0  0  0  0  0  0  0
    4.3032    3.3437    1.6468 H   0  0  0  0  0  0  0  0  0  0  0  0
    3.6272    2.7898    3.1602 H   0  0  0  0  0  0  0  0  0  0  0  0
  1  2  1  0  0  0  0
  1 28  1  0  0  0  0
  1 29  1  0  0  0  0
  1 30  1  0  0  0  0
  2  3  1  0  0  0  0
  2 20  1  0  0  0  0
  2 31  1  6  0  0  0
  3  4  1  0  0  0  0
  3 32  1  0  0  0  0
  3 33  1  0  0  0  0
  4  5  1  0  0  0  0
  4 34  1  0  0  0  0
  4 35  1  0  0  0  0
  5 21  1  0  0  0  0
  5 36  1  0  0  0  0
  5 37  1  0  0  0  0
  6 19  1  0  0  0  0
  6  7  2  0  0  0  0
  7  8  1  0  0  0  0
  7 38  1  0  0  0  0
  8 39  1  0  0  0  0
  8  9  2  0  0  0  0
  9 10  1  0  0  0  0
  9 18  1  0  0  0  0
 10 22  1  0  0  0  0
 10 40  1  0  0  0  0
 10 41  1  0  0  0  0
 11 22  1  0  0  0  0
 11 12  1  0  0  0  0
 11 27  2  0  0  0  0
 12 13  1  0  0  0  0
 12 14  1  0  0  0  0
 12 43  1  6  0  0  0
 13 14  1  0  0  0  0
 13 44  1  0  0  0  0
 13 45  1  0  0  0  0
 14 15  1  0  0  0  0
 14 46  1  6  0  0  0
 15 23  1  0  0  0  0
 15 47  1  0  0  0  0
 15 48  1  0  0  0  0
 16 23  1  0  0  0  0
 16 49  1  0  0  0  0
 16 50  1  0  0  0  0
 16 51  1  0  0  0  0
 17 23  1  0  0  0  0
 17 52  1  0  0  0  0
 17 53  1  0  0  0  0
 17 54  1  0  0  0  0
 18 55  1  0  0  0  0
 18 19  2  0  0  0  0
 19 56  1  0  0  0  0
 20 21  1  0  0  0  0
 20 57  1  0  0  0  0
 20 58  1  0  0  0  0
 22 42  1  0  0  0  0
 24 21  1  0  0  0  0
 24  6  1  0  0  0  0
 24 25  2  0  0  0  0
 24 26  2  0  0  0  0
M  END
>  <score>
0.45121949911117554

$$$$
PV-004101446862
 OpenBabel08202115463D

 47 50  0  0  0  0  0  0  0  0999 V2000
   -5.1167   -4.0828   -2.9880 C   0  0  0  0  0  0  0  0  0  0  0  0
   -4.1213   -3.1012   -2.4159 C   0  0  0  0  0  0  0  0  0  0  0  0
   -4.3217   -1.7769   -2.5832 C   0  0  0  0  0  0  0  0  0  0  0  0
   -5.5474   -1.2706   -3.3063 C   0  0  0  0  0  0  0  0  0  0  0  0
   -3.3663   -0.8717   -2.0709 C   0  0  0  0  0  0  0  0  0  0  0  0
   -1.5344   -0.2534   -1.0419 C   0  0  0  0  0  0  0  0  0  0  0  0
   -0.2586   -0.1868   -0.3110 C   0  0  0  0  0  0  0  0  0  0  0  0
    1.5125    0.4670    0.7506 C   0  0  0  0  0  0  0  0  0  0  0  0
    3.0836    2.4097    0.9218 C   0  0  0  0  0  0  0  0  0  0  0  0
    4.5983    2.2633    0.8957 C   0  0  0  0  0  0  0  0  0  0  0  0
    5.1424    1.8642    2.2616 C   0  0  0  0  0  0  0  0  0  0  0  0
    4.4444    0.6137    2.7631 C   0  0  0  0  0  0  0  0  0  0  0  0
    2.9374    0.7958    2.7810 C   0  0  1  0  0  0  0  0  0  0  0  0
    2.5699    1.8878    3.7930 C   0  0  0  0  0  0  0  0  0  0  0  0
   -0.0614    2.3012   -0.0561 C   0  0  0  0  0  0  0  0  0  0  0  0
   -2.0634   -2.7323   -1.2294 C   0  0  0  0  0  0  0  0  0  0  0  0
   -2.9873   -3.5868   -1.7093 C   0  0  0  0  0  0  0  0  0  0  0  0
   -3.3323    0.4489   -2.0910 N   0  0  0  0  0  0  0  0  0  0  0  0
   -2.1813    0.8161   -1.4312 N   0  0  0  0  0  0  0  0  0  0  0  0
    0.4216   -1.2602    0.0101 N   0  0  0  0  0  0  0  0  0  0  0  0
    1.5550   -0.8391    0.6928 N   0  0  0  0  0  0  0  0  0  0  0  0
    2.4643    1.1882    1.4505 N   0  0  0  0  0  0  0  0  0  0  0  0
    0.3995    0.9253    0.1327 N   0  0  0  0  0  0  0  0  0  0  0  0
   -2.2442   -1.3783   -1.4301 N   0  0  0  0  0  0  0  0  0  0  0  0
    6.4239    1.6318    2.1633 F   0  0  0  0  0  0  0  0  0  0  0  0
    4.9306    2.8822    3.1448 F   0  0  0  0  0  0  0  0  0  0  0  0
   -4.6311   -4.7024   -3.7127 H   0  0  0  0  0  0  0  0  0  0  0  0
   -5.9167   -3.5476   -3.4553 H   0  0  0  0  0  0  0  0  0  0  0  0
   -5.5073   -4.6937   -2.2011 H   0  0  0  0  0  0  0  0  0  0  0  0
   -5.4840   -0.2082   -3.4160 H   0  0  0  0  0  0  0  0  0  0  0  0
   -6.4220   -1.5192   -2.7423 H   0  0  0  0  0  0  0  0  0  0  0  0
   -5.6044   -1.7260   -4.2730 H   0  0  0  0  0  0  0  0  0  0  0  0
    2.8195    3.2380    1.5456 H   0  0  0  0  0  0  0  0  0  0  0  0
    2.7284    2.5838   -0.0724 H   0  0  0  0  0  0  0  0  0  0  0  0
    5.0332    3.1974    0.6074 H   0  0  0  0  0  0  0  0  0  0  0  0
    4.8628    1.5108    0.1825 H   0  0  0  0  0  0  0  0  0  0  0  0
    4.6894   -0.2047    2.1189 H   0  0  0  0  0  0  0  0  0  0  0  0
    4.7818    0.4002    3.7558 H   0  0  0  0  0  0  0  0  0  0  0  0
    2.4727   -0.1252    3.0648 H   0  0  0  0  0  0  0  0  0  0  0  0
    2.9468    1.6215    4.7584 H   0  0  0  0  0  0  0  0  0  0  0  0
    1.5055    1.9860    3.8406 H   0  0  0  0  0  0  0  0  0  0  0  0
    3.0011    2.8178    3.4861 H   0  0  0  0  0  0  0  0  0  0  0  0
    0.1748    2.8793    0.8128 H   0  0  0  0  0  0  0  0  0  0  0  0
   -1.1203    2.3045   -0.2094 H   0  0  0  0  0  0  0  0  0  0  0  0
    0.4244    2.7259   -0.9096 H   0  0  0  0  0  0  0  0  0  0  0  0
   -1.2299   -3.0856   -0.7176 H   0  0  0  0  0  0  0  0  0  0  0  0
   -2.8703   -4.6096   -1.5617 H   0  0  0  0  0  0  0  0  0  0  0  0
  1  2  1  0  0  0  0
  1 27  1  0  0  0  0
  1 28  1  0  0  0  0
  1 29  1  0  0  0  0
  2 17  1  0  0  0  0
  2  3  2  0  0  0  0
  3  4  1  0  0  0  0
  3  5  1  0  0  0  0
  4 30  1  0  0  0  0
  4 31  1  0  0  0  0
  4 32  1  0  0  0  0
  5 24  1  0  0  0  0
  5 18  2  0  0  0  0
  6  7  1  0  0  0  0
  6 24  1  0  0  0  0
  6 19  2  0  0  0  0
  7 23  1  0  0  0  0
  7 20  2  0  0  0  0
  8 22  1  0  0  0  0
  8 23  1  0  0  0  0
  8 21  2  0  0  0  0
  9 22  1  0  0  0  0
  9 10  1  0  0  0  0
  9 33  1  0  0  0  0
  9 34  1  0  0  0  0
 10 11  1  0  0  0  0
 10 35  1  0  0  0  0
 10 36  1  0  0  0  0
 11 25  1  0  0  0  0
 11 26  1  0  0  0  0
 11 12  1  0  0  0  0
 12 13  1  0  0  0  0
 12 37  1  0  0  0  0
 12 38  1  0  0  0  0
 13 22  1  0  0  0  0
 13 14  1  0  0  0  0
 13 39  1  1  0  0  0
 14 40  1  0  0  0  0
 14 41  1  0  0  0  0
 14 42  1  0  0  0  0
 15 23  1  0  0  0  0
 15 43  1  0  0  0  0
 15 44  1  0  0  0  0
 15 45  1  0  0  0  0
 16 24  1  0  0  0  0
 16 46  1  0  0  0  0
 16 17  2  0  0  0  0
 17 47  1  0  0  0  0
 18 19  1  0  0  0  0
 20 21  1  0  0  0  0
M  END
>  <score>
0.45122319459915161

$$$$
PV-001152411634
 OpenBabel08202115463D

 50 52  0  0  0  0  0  0  0  0999 V2000
   -8.0698   -2.6673   -3.7364 C   0  0  0  0  0  0  0  0  0  0  0  0
   -7.0241   -2.7748   -2.6803 C   0  0  0  0  0  0  0  0  0  0  0  0
   -5.9522   -2.0464   -2.3225 C   0  0  0  0  0  0  0  0  0  0  0  0
   -5.3945   -2.7309   -1.2107 C   0  0  0  0  0  0  0  0  0  0  0  0
   -4.1704   -2.3058   -0.4532 C   0  0  0  0  0  0  0  0  0  0  0  0
   -2.4197   -0.6163   -0.6106 C   0  0  0  0  0  0  0  0  0  0  0  0
   -2.1200    0.7425   -1.1798 C   0  0  0  0  0  0  0  0  0  0  0  0
   -0.6393    2.6336   -1.4200 C   0  0  0  0  0  0  0  0  0  0  0  0
    0.1383    0.6238   -0.1702 C   0  0  2  0  0  0  0  0  0  0  0  0
    0.8039    1.5204    0.9047 C   0  0  0  0  0  0  0  0  0  0  0  0
    2.1740    1.4323    0.1378 C   0  0  2  0  0  0  0  0  0  0  0  0
    4.3599    1.3639    1.2919 C   0  0  0  0  0  0  0  0  0  0  0  0
    5.2365    0.5430    2.2004 C   0  0  1  0  0  0  0  0  0  0  0  0
    6.6823    0.9439    2.0677 C   0  0  0  0  0  0  0  0  0  0  0  0
    7.2711    0.5825    3.4346 C   0  0  0  0  0  0  0  0  0  0  0  0
    4.9377    0.8421    3.6766 C   0  0  0  0  0  0  0  0  0  0  0  0
    1.5083    0.5357   -0.9371 C   0  0  0  0  0  0  0  0  0  0  0  0
   -3.6236   -1.1687   -1.1048 O   0  0  0  0  0  0  0  0  0  0  0  0
   -2.9521    1.3381   -1.8628 O   0  0  0  0  0  0  0  0  0  0  0  0
    4.6785    2.5014    0.9559 O   0  0  0  0  0  0  0  0  0  0  0  0
    6.1420    0.5613    4.3368 O   0  0  0  0  0  0  0  0  0  0  0  0
   -7.1391   -3.8478   -1.8585 O   0  0  0  0  0  0  0  0  0  0  0  0
   -0.9242    1.2825   -0.9214 N   0  0  0  0  0  0  0  0  0  0  0  0
    3.2333    0.7756    0.8868 N   0  0  0  0  0  0  0  0  0  0  0  0
   -6.0902   -3.8049   -0.9145 N   0  0  0  0  0  0  0  0  0  0  0  0
   -7.9267   -3.4417   -4.4608 H   0  0  0  0  0  0  0  0  0  0  0  0
   -7.9960   -1.7133   -4.2152 H   0  0  0  0  0  0  0  0  0  0  0  0
   -9.0375   -2.7698   -3.2915 H   0  0  0  0  0  0  0  0  0  0  0  0
   -5.6063   -1.1709   -2.7646 H   0  0  0  0  0  0  0  0  0  0  0  0
   -3.4535   -3.1001   -0.4468 H   0  0  0  0  0  0  0  0  0  0  0  0
   -4.4350   -2.0553    0.5529 H   0  0  0  0  0  0  0  0  0  0  0  0
   -1.6146   -1.2755   -0.8600 H   0  0  0  0  0  0  0  0  0  0  0  0
   -2.4952   -0.5312    0.4533 H   0  0  0  0  0  0  0  0  0  0  0  0
   -0.4214    3.2799   -0.5956 H   0  0  0  0  0  0  0  0  0  0  0  0
   -1.4919    3.0054   -1.9488 H   0  0  0  0  0  0  0  0  0  0  0  0
    0.2030    2.6001   -2.0789 H   0  0  0  0  0  0  0  0  0  0  0  0
   -0.2162   -0.3148    0.2015 H   0  0  0  0  0  0  0  0  0  0  0  0
    0.8232    1.0870    1.8828 H   0  0  0  0  0  0  0  0  0  0  0  0
    0.3981    2.5089    0.9600 H   0  0  0  0  0  0  0  0  0  0  0  0
    2.5284    2.3710   -0.2339 H   0  0  0  0  0  0  0  0  0  0  0  0
    3.1104   -0.1705    1.1108 H   0  0  0  0  0  0  0  0  0  0  0  0
    5.1028   -0.4961    1.9826 H   0  0  0  0  0  0  0  0  0  0  0  0
    7.1627    0.3943    1.2855 H   0  0  0  0  0  0  0  0  0  0  0  0
    6.7736    1.9925    1.8756 H   0  0  0  0  0  0  0  0  0  0  0  0
    7.7413   -0.3779    3.3990 H   0  0  0  0  0  0  0  0  0  0  0  0
    7.9843    1.3182    3.7428 H   0  0  0  0  0  0  0  0  0  0  0  0
    4.6639    1.8681    3.8075 H   0  0  0  0  0  0  0  0  0  0  0  0
    4.1513    0.2135    4.0390 H   0  0  0  0  0  0  0  0  0  0  0  0
    1.9140   -0.4529   -0.9924 H   0  0  0  0  0  0  0  0  0  0  0  0
    1.4890    0.9691   -1.9152 H   0  0  0  0  0  0  0  0  0  0  0  0
  1  2  1  0  0  0  0
  1 26  1  0  0  0  0
  1 27  1  0  0  0  0
  1 28  1  0  0  0  0
  2 22  1  0  0  0  0
  2  3  2  0  0  0  0
  3  4  1  0  0  0  0
  3 29  1  0  0  0  0
  4  5  1  0  0  0  0
  4 25  2  0  0  0  0
  5 18  1  0  0  0  0
  5 30  1  0  0  0  0
  5 31  1  0  0  0  0
  6 18  1  0  0  0  0
  6  7  1  0  0  0  0
  6 32  1  0  0  0  0
  6 33  1  0  0  0  0
  7 23  1  0  0  0  0
  7 19  2  0  0  0  0
  8 23  1  0  0  0  0
  8 34  1  0  0  0  0
  8 35  1  0  0  0  0
  8 36  1  0  0  0  0
  9 23  1  0  0  0  0
  9 10  1  0  0  0  0
  9 17  1  0  0  0  0
  9 37  1  1  0  0  0
 10 11  1  0  0  0  0
 10 38  1  0  0  0  0
 10 39  1  0  0  0  0
 11 24  1  0  0  0  0
 11 17  1  0  0  0  0
 11 40  1  6  0  0  0
 12 24  1  0  0  0  0
 12 13  1  0  0  0  0
 12 20  2  0  0  0  0
 13 14  1  0  0  0  0
 13 16  1  0  0  0  0
 13 42  1  6  0  0  0
 14 15  1  0  0  0  0
 14 43  1  0  0  0  0
 14 44  1  0  0  0  0
 15 21  1  0  0  0  0
 15 45  1  0  0  0  0
 15 46  1  0  0  0  0
 16 21  1  0  0  0  0
 16 47  1  0  0  0  0
 16 48  1  0  0  0  0
 17 49  1  0  0  0  0
 17 50  1  0  0  0  0
 24 41  1  0  0  0  0
 25 22  1  0  0  0  0
M  END
>  <score>
0.45130157470703125

$$$$
PV-003894374368
 OpenBabel08202115463D

 52 54  0  0  0  0  0  0  0  0999 V2000
   -8.5730   -4.7648   -3.5270 C   0  0  0  0  0  0  0  0  0  0  0  0
   -6.4531   -3.5093   -3.2213 C   0  0  0  0  0  0  0  0  0  0  0  0
   -5.7474   -1.5249   -2.9082 C   0  0  0  0  0  0  0  0  0  0  0  0
   -4.6791   -2.3395   -2.7754 C   0  0  0  0  0  0  0  0  0  0  0  0
   -3.2254   -2.2067   -2.4836 C   0  0  0  0  0  0  0  0  0  0  0  0
   -1.3545   -0.7927   -1.7601 C   0  0  2  0  0  0  0  0  0  0  0  0
   -1.1668   -0.8863   -0.2017 C   0  0  0  0  0  0  0  0  0  0  0  0
   -0.7240    0.5987   -0.1713 C   0  0  1  0  0  0  0  0  0  0  0  0
    0.6972    0.8068    0.2903 C   0  0  0  0  0  0  0  0  0  0  0  0
    0.9006    0.5100    1.7663 C   0  0  0  0  0  0  0  0  0  0  0  0
    2.8553    1.7291    2.7244 C   0  0  0  0  0  0  0  0  0  0  0  0
    4.3335    1.6880    3.0695 C   0  0  1  0  0  0  0  0  0  0  0  0
    5.1824    0.8519    2.1034 C   0  0  0  0  0  0  0  0  0  0  0  0
    6.3480    3.0191    3.6427 C   0  0  0  0  0  0  0  0  0  0  0  0
    6.6097    4.1434    2.6129 C   0  0  0  0  0  0  0  0  0  0  0  0
    5.3091    3.6690    1.9300 C   0  0  0  0  0  0  0  0  0  0  0  0
   -0.9116    0.6924   -1.7298 C   0  0  0  0  0  0  0  0  0  0  0  0
   -7.1288   -4.6290   -3.4507 N   0  0  0  0  0  0  0  0  0  0  0  0
   -6.8750   -2.2754   -3.1926 N   0  0  0  0  0  0  0  0  0  0  0  0
   -2.7347   -0.9949   -2.2084 N   0  0  0  0  0  0  0  0  0  0  0  0
    2.3014    0.6284    2.1749 N   0  0  0  0  0  0  0  0  0  0  0  0
    4.9303    3.0334    3.2166 N   0  0  0  0  0  0  0  0  0  0  0  0
   -2.4899   -3.1991   -2.4965 O   0  0  0  0  0  0  0  0  0  0  0  0
    2.1847    2.7377    2.9406 O   0  0  0  0  0  0  0  0  0  0  0  0
   -5.1218   -3.6316   -2.9762 O   0  0  0  0  0  0  0  0  0  0  0  0
   -8.8483   -5.7767   -3.3144 H   0  0  0  0  0  0  0  0  0  0  0  0
   -8.9040   -4.5045   -4.5107 H   0  0  0  0  0  0  0  0  0  0  0  0
   -9.0305   -4.1132   -2.8122 H   0  0  0  0  0  0  0  0  0  0  0  0
   -6.6011   -5.4443   -3.5816 H   0  0  0  0  0  0  0  0  0  0  0  0
   -5.7264   -0.4897   -2.8113 H   0  0  0  0  0  0  0  0  0  0  0  0
   -3.3182   -0.2141   -2.3098 H   0  0  0  0  0  0  0  0  0  0  0  0
   -0.7009   -1.4311   -2.3170 H   0  0  0  0  0  0  0  0  0  0  0  0
   -2.0701   -1.0845    0.3365 H   0  0  0  0  0  0  0  0  0  0  0  0
   -0.4086   -1.5753    0.1070 H   0  0  0  0  0  0  0  0  0  0  0  0
   -1.3775    1.2371    0.3857 H   0  0  0  0  0  0  0  0  0  0  0  0
    0.9669    1.8262    0.1089 H   0  0  0  0  0  0  0  0  0  0  0  0
    1.3358    0.1621   -0.2766 H   0  0  0  0  0  0  0  0  0  0  0  0
    0.5688   -0.4878    1.9642 H   0  0  0  0  0  0  0  0  0  0  0  0
    0.3170    1.2006    2.3384 H   0  0  0  0  0  0  0  0  0  0  0  0
    2.8804   -0.1505    2.0391 H   0  0  0  0  0  0  0  0  0  0  0  0
    4.4087    1.2114    4.0245 H   0  0  0  0  0  0  0  0  0  0  0  0
    6.1680    0.8534    2.5199 H   0  0  0  0  0  0  0  0  0  0  0  0
    5.1866    1.2945    1.1293 H   0  0  0  0  0  0  0  0  0  0  0  0
    4.8037   -0.1468    2.0403 H   0  0  0  0  0  0  0  0  0  0  0  0
    6.5089    3.3033    4.6617 H   0  0  0  0  0  0  0  0  0  0  0  0
    6.8634    2.1033    3.4417 H   0  0  0  0  0  0  0  0  0  0  0  0
    6.5756    5.1366    3.0095 H   0  0  0  0  0  0  0  0  0  0  0  0
    7.4974    4.0228    2.0278 H   0  0  0  0  0  0  0  0  0  0  0  0
    4.6586    4.4582    1.6154 H   0  0  0  0  0  0  0  0  0  0  0  0
    5.4558    2.9835    1.1216 H   0  0  0  0  0  0  0  0  0  0  0  0
   -0.0083    0.8906   -2.2680 H   0  0  0  0  0  0  0  0  0  0  0  0
   -1.6698    1.3814   -2.0384 H   0  0  0  0  0  0  0  0  0  0  0  0
  1 18  1  0  0  0  0
  1 26  1  0  0  0  0
  1 27  1  0  0  0  0
  1 28  1  0  0  0  0
  2 18  1  0  0  0  0
  2 25  1  0  0  0  0
  2 19  2  0  0  0  0
  3 19  1  0  0  0  0
  3 30  1  0  0  0  0
  3  4  2  0  0  0  0
  4  5  1  0  0  0  0
  4 25  1  0  0  0  0
  5 20  1  0  0  0  0
  5 23  2  0  0  0  0
  6 20  1  0  0  0  0
  6  7  1  0  0  0  0
  6 17  1  0  0  0  0
  6 32  1  6  0  0  0
  7  8  1  0  0  0  0
  7 33  1  0  0  0  0
  7 34  1  0  0  0  0
  8  9  1  0  0  0  0
  8 17  1  0  0  0  0
  8 35  1  1  0  0  0
  9 10  1  0  0  0  0
  9 36  1  0  0  0  0
  9 37  1  0  0  0  0
 10 21  1  0  0  0  0
 10 38  1  0  0  0  0
 10 39  1  0  0  0  0
 11 21  1  0  0  0  0
 11 12  1  0  0  0  0
 11 24  2  0  0  0  0
 12 13  1  0  0  0  0
 12 22  1  0  0  0  0
 12 41  1  1  0  0  0
 13 42  1  0  0  0  0
 13 43  1  0  0  0  0
 13 44  1  0  0  0  0
 14 22  1  0  0  0  0
 14 15  1  0  0  0  0
 14 45  1  0  0  0  0
 14 46  1  0  0  0  0
 15 16  1  0  0  0  0
 15 47  1  0  0  0  0
 15 48  1  0  0  0  0
 16 22  1  0  0  0  0
 16 49  1  0  0  0  0
 16 50  1  0  0  0  0
 17 51  1  0  0  0  0
 17 52  1  0  0  0  0
 18 29  1  0  0  0  0
 20 31  1  0  0  0  0
 21 40  1  0  0  0  0
M  END
>  <score>
0.45135056972503662

$$$$
Z3505992146
 OpenBabel08202115463D

 51 54  0  0  0  0  0  0  0  0999 V2000
    5.0267   -0.7381    3.6718 C   0  0  0  0  0  0  0  0  0  0  0  0
    4.6266    1.9470    3.0507 C   0  0  0  0  0  0  0  0  0  0  0  0
    4.1458    2.3209    1.8300 C   0  0  0  0  0  0  0  0  0  0  0  0
    2.8282    1.8332    1.2753 C   0  0  0  0  0  0  0  0  0  0  0  0
    0.3380    2.2961    1.0716 C   0  0  1  0  0  0  0  0  0  0  0  0
    0.3315    1.9665   -0.4322 C   0  0  0  0  0  0  0  0  0  0  0  0
   -0.6267    0.8226   -0.0870 C   0  0  2  0  0  0  0  0  0  0  0  0
   -0.0366    0.8243    1.3237 C   0  0  0  0  0  0  0  0  0  0  0  0
   -0.6672   -0.4554   -0.9255 C   0  0  0  0  0  0  0  0  0  0  0  0
   -2.1493   -0.5681   -0.5247 C   0  0  1  0  0  0  0  0  0  0  0  0
   -2.9444   -2.4147   -1.8111 C   0  0  0  0  0  0  0  0  0  0  0  0
   -4.0357   -2.8330   -2.7740 C   0  0  0  0  0  0  0  0  0  0  0  0
   -5.0279   -1.9277   -3.1167 C   0  0  0  0  0  0  0  0  0  0  0  0
   -6.0795   -2.3264   -3.9201 C   0  0  0  0  0  0  0  0  0  0  0  0
   -6.1392   -3.6300   -4.3876 C   0  0  0  0  0  0  0  0  0  0  0  0
   -5.1498   -4.5326   -4.0459 C   0  0  0  0  0  0  0  0  0  0  0  0
   -4.0950   -4.1328   -3.2401 C   0  0  0  0  0  0  0  0  0  0  0  0
   -2.1328    0.9569   -0.3142 C   0  0  0  0  0  0  0  0  0  0  0  0
    4.9654    3.2855    1.1940 C   0  0  0  0  0  0  0  0  0  0  0  0
    6.0462    3.6353    1.9493 C   0  0  0  0  0  0  0  0  0  0  0  0
    4.0046    0.6699    4.0429 S   0  0  0  0  0  0  0  0  0  0  0  0
    6.0764    2.7797    3.4363 S   0  0  0  0  0  0  0  0  0  0  0  0
    4.2124    1.0350    5.4098 O   0  0  0  0  0  0  0  0  0  0  0  0
    2.6698    0.3920    3.6115 O   0  0  0  0  0  0  0  0  0  0  0  0
   -3.0174   -1.0174   -1.5680 O   0  0  0  0  0  0  0  0  0  0  0  0
    1.6641    2.7012    1.6130 N   0  0  0  0  0  0  0  0  0  0  0  0
    4.6586   -1.5949    4.1964 H   0  0  0  0  0  0  0  0  0  0  0  0
    6.0327   -0.5385    3.9769 H   0  0  0  0  0  0  0  0  0  0  0  0
    5.0037   -0.9277    2.6190 H   0  0  0  0  0  0  0  0  0  0  0  0
    2.6415    0.8547    1.6658 H   0  0  0  0  0  0  0  0  0  0  0  0
    2.9110    1.7827    0.2097 H   0  0  0  0  0  0  0  0  0  0  0  0
    1.8586    3.6005    1.2757 H   0  0  0  0  0  0  0  0  0  0  0  0
   -0.4039    3.0043    1.3767 H   0  0  0  0  0  0  0  0  0  0  0  0
    1.2761    1.6570   -0.8282 H   0  0  0  0  0  0  0  0  0  0  0  0
   -0.0855    2.7284   -1.0572 H   0  0  0  0  0  0  0  0  0  0  0  0
   -0.7481    0.6704    2.1080 H   0  0  0  0  0  0  0  0  0  0  0  0
    0.7960    0.1668    1.4627 H   0  0  0  0  0  0  0  0  0  0  0  0
   -0.4948   -0.3114   -1.9716 H   0  0  0  0  0  0  0  0  0  0  0  0
   -0.0438   -1.2476   -0.5665 H   0  0  0  0  0  0  0  0  0  0  0  0
   -2.3304   -1.1395    0.3616 H   0  0  0  0  0  0  0  0  0  0  0  0
   -3.0664   -2.9413   -0.8877 H   0  0  0  0  0  0  0  0  0  0  0  0
   -1.9901   -2.6508   -2.2336 H   0  0  0  0  0  0  0  0  0  0  0  0
   -4.9811   -0.9486   -2.7692 H   0  0  0  0  0  0  0  0  0  0  0  0
   -6.8260   -1.6483   -4.1739 H   0  0  0  0  0  0  0  0  0  0  0  0
   -6.9284   -3.9288   -4.9955 H   0  0  0  0  0  0  0  0  0  0  0  0
   -5.1966   -5.5117   -4.3934 H   0  0  0  0  0  0  0  0  0  0  0  0
   -3.3484   -4.8109   -2.9863 H   0  0  0  0  0  0  0  0  0  0  0  0
   -2.6861    1.2986    0.5354 H   0  0  0  0  0  0  0  0  0  0  0  0
   -2.4074    1.5315   -1.1740 H   0  0  0  0  0  0  0  0  0  0  0  0
    4.7650    3.6835    0.2543 H   0  0  0  0  0  0  0  0  0  0  0  0
    6.7617    4.3326    1.6603 H   0  0  0  0  0  0  0  0  0  0  0  0
  1 27  1  0  0  0  0
  1 28  1  0  0  0  0
  1 29  1  0  0  0  0
  2 22  1  0  0  0  0
  2  3  2  0  0  0  0
  3  4  1  0  0  0  0
  3 19  1  0  0  0  0
  4 26  1  0  0  0  0
  4 30  1  0  0  0  0
  4 31  1  0  0  0  0
  5 26  1  0  0  0  0
  5  6  1  0  0  0  0
  5  8  1  0  0  0  0
  5 33  1  1  0  0  0
  6 34  1  0  0  0  0
  6 35  1  0  0  0  0
  7  6  1  6  0  0  0
  7  8  1  0  0  0  0
  7  9  1  0  0  0  0
  7 18  1  0  0  0  0
  8 36  1  0  0  0  0
  8 37  1  0  0  0  0
  9 10  1  0  0  0  0
  9 38  1  0  0  0  0
  9 39  1  0  0  0  0
 10 25  1  0  0  0  0
 10 18  1  0  0  0  0
 10 40  1  1  0  0  0
 11 25  1  0  0  0  0
 11 12  1  0  0  0  0
 11 41  1  0  0  0  0
 11 42  1  0  0  0  0
 12 17  1  0  0  0  0
 12 13  2  0  0  0  0
 13 14  1  0  0  0  0
 13 43  1  0  0  0  0
 14 44  1  0  0  0  0
 14 15  2  0  0  0  0
 15 16  1  0  0  0  0
 15 45  1  0  0  0  0
 16 46  1  0  0  0  0
 16 17  2  0  0  0  0
 17 47  1  0  0  0  0
 18 48  1  0  0  0  0
 18 49  1  0  0  0  0
 19 50  1  0  0  0  0
 19 20  2  0  0  0  0
 20 22  1  0  0  0  0
 20 51  1  0  0  0  0
 21  1  1  0  0  0  0
 21  2  1  0  0  0  0
 21 23  2  0  0  0  0
 21 24  2  0  0  0  0
 26 32  1  0  0  0  0
M  END
>  <score>
0.45141416788101196

$$$$
PV-003679509172
 OpenBabel08202115463D

 56 57  0  0  0  0  0  0  0  0999 V2000
    5.9804    2.2449    4.0281 C   0  0  0  0  0  0  0  0  0  0  0  0
    4.9927    1.1318    3.7187 C   0  0  0  0  0  0  0  0  0  0  0  0
    5.6804   -0.1582    3.2640 C   0  0  0  0  0  0  0  0  0  0  0  0
    4.0032    1.5953    2.6883 C   0  0  0  0  0  0  0  0  0  0  0  0
    2.4277    0.7129    1.2359 C   0  0  1  0  0  0  0  0  0  0  0  0
    1.2403   -0.2249    1.0597 C   0  0  0  0  0  0  0  0  0  0  0  0
   -0.5528   -0.9117   -0.5119 C   0  0  0  0  0  0  0  0  0  0  0  0
   -1.6882    0.1115   -0.5392 C   0  0  1  0  0  0  0  0  0  0  0  0
   -2.0848    0.9463   -1.7161 C   0  0  0  0  0  0  0  0  0  0  0  0
   -3.0645   -0.0157   -1.1131 C   0  0  1  0  0  0  0  0  0  0  0  0
   -4.6766   -1.3103   -2.4191 C   0  0  0  0  0  0  0  0  0  0  0  0
   -4.9339   -2.5996   -3.1746 C   0  0  0  0  0  0  0  0  0  0  0  0
   -5.0864   -2.2933   -4.6789 C   0  0  0  0  0  0  0  0  0  0  0  0
   -6.0275   -3.5006   -2.5767 C   0  0  0  0  0  0  0  0  0  0  0  0
   -3.9800   -3.7568   -2.8366 C   0  0  0  0  0  0  0  0  0  0  0  0
    1.9559    2.1583    1.0485 C   0  0  0  0  0  0  0  0  0  0  0  0
    0.8652    2.5107    2.0469 C   0  0  0  0  0  0  0  0  0  0  0  0
    1.5083    2.4114   -0.3819 C   0  0  0  0  0  0  0  0  0  0  0  0
    3.0766    0.5377    2.4799 O   0  0  0  0  0  0  0  0  0  0  0  0
    0.8141   -0.8984    1.9969 O   0  0  0  0  0  0  0  0  0  0  0  0
   -5.5551   -0.4584   -2.2921 O   0  0  0  0  0  0  0  0  0  0  0  0
   -5.0784   -4.5670   -2.3376 O   0  0  0  0  0  0  0  0  0  0  0  0
    0.7035   -0.2614   -0.1702 N   0  0  0  0  0  0  0  0  0  0  0  0
   -3.4488   -1.1704   -1.9111 N   0  0  0  0  0  0  0  0  0  0  0  0
    5.4459    3.1395    4.2708 H   0  0  0  0  0  0  0  0  0  0  0  0
    6.5991    2.4203    3.1729 H   0  0  0  0  0  0  0  0  0  0  0  0
    6.5916    1.9585    4.8584 H   0  0  0  0  0  0  0  0  0  0  0  0
    4.4519    0.9140    4.6159 H   0  0  0  0  0  0  0  0  0  0  0  0
    6.7415   -0.0209    3.2768 H   0  0  0  0  0  0  0  0  0  0  0  0
    5.3643   -0.3996    2.2706 H   0  0  0  0  0  0  0  0  0  0  0  0
    5.4161   -0.9557    3.9266 H   0  0  0  0  0  0  0  0  0  0  0  0
    4.5087    1.8237    1.7732 H   0  0  0  0  0  0  0  0  0  0  0  0
    3.4905    2.4661    3.0400 H   0  0  0  0  0  0  0  0  0  0  0  0
    3.1231    0.5004    0.4509 H   0  0  0  0  0  0  0  0  0  0  0  0
    1.1946    0.1833   -0.8923 H   0  0  0  0  0  0  0  0  0  0  0  0
   -0.7717   -1.6627    0.2182 H   0  0  0  0  0  0  0  0  0  0  0  0
   -0.4640   -1.3664   -1.4764 H   0  0  0  0  0  0  0  0  0  0  0  0
   -1.6986    0.6874    0.3625 H   0  0  0  0  0  0  0  0  0  0  0  0
   -1.6635    0.7474   -2.6794 H   0  0  0  0  0  0  0  0  0  0  0  0
   -2.2293    2.0001   -1.6001 H   0  0  0  0  0  0  0  0  0  0  0  0
   -3.8458    0.4301   -0.5336 H   0  0  0  0  0  0  0  0  0  0  0  0
   -2.7838   -1.8698   -2.0819 H   0  0  0  0  0  0  0  0  0  0  0  0
   -5.6423   -3.0776   -5.1485 H   0  0  0  0  0  0  0  0  0  0  0  0
   -4.1179   -2.2243   -5.1285 H   0  0  0  0  0  0  0  0  0  0  0  0
   -5.6047   -1.3654   -4.8029 H   0  0  0  0  0  0  0  0  0  0  0  0
   -6.4676   -3.1083   -1.6838 H   0  0  0  0  0  0  0  0  0  0  0  0
   -6.7991   -3.7593   -3.2713 H   0  0  0  0  0  0  0  0  0  0  0  0
   -3.4897   -4.1747   -3.6909 H   0  0  0  0  0  0  0  0  0  0  0  0
   -3.2521   -3.5117   -2.0915 H   0  0  0  0  0  0  0  0  0  0  0  0
    2.7920    2.7969    1.2438 H   0  0  0  0  0  0  0  0  0  0  0  0
    0.6468    1.6567    2.6534 H   0  0  0  0  0  0  0  0  0  0  0  0
   -0.0172    2.8089    1.5203 H   0  0  0  0  0  0  0  0  0  0  0  0
    1.1983    3.3145    2.6697 H   0  0  0  0  0  0  0  0  0  0  0  0
    2.2766    2.0978   -1.0573 H   0  0  0  0  0  0  0  0  0  0  0  0
    1.3198    3.4560   -0.5168 H   0  0  0  0  0  0  0  0  0  0  0  0
    0.6135    1.8587   -0.5784 H   0  0  0  0  0  0  0  0  0  0  0  0
  1  2  1  0  0  0  0
  1 25  1  0  0  0  0
  1 26  1  0  0  0  0
  1 27  1  0  0  0  0
  2  3  1  0  0  0  0
  2  4  1  0  0  0  0
  2 28  1  0  0  0  0
  3 29  1  0  0  0  0
  3 30  1  0  0  0  0
  3 31  1  0  0  0  0
  4 19  1  0  0  0  0
  4 32  1  0  0  0  0
  4 33  1  0  0  0  0
  5 19  1  0  0  0  0
  5  6  1  0  0  0  0
  5 16  1  0  0  0  0
  5 34  1  6  0  0  0
  6 23  1  0  0  0  0
  6 20  2  0  0  0  0
  7 23  1  0  0  0  0
  7  8  1  0  0  0  0
  7 36  1  0  0  0  0
  7 37  1  0  0  0  0
  8  9  1  0  0  0  0
  8 10  1  0  0  0  0
  8 38  1  1  0  0  0
  9 10  1  0  0  0  0
  9 39  1  0  0  0  0
  9 40  1  0  0  0  0
 10 24  1  0  0  0  0
 10 41  1  1  0  0  0
 11 24  1  0  0  0  0
 11 12  1  0  0  0  0
 11 21  2  0  0  0  0
 12 13  1  0  0  0  0
 12 14  1  0  0  0  0
 12 15  1  0  0  0  0
 13 43  1  0  0  0  0
 13 44  1  0  0  0  0
 13 45  1  0  0  0  0
 14 22  1  0  0  0  0
 14 46  1  0  0  0  0
 14 47  1  0  0  0  0
 15 22  1  0  0  0  0
 15 48  1  0  0  0  0
 15 49  1  0  0  0  0
 16 17  1  0  0  0  0
 16 18  1  0  0  0  0
 16 50  1  0  0  0  0
 17 51  1  0  0  0  0
 17 52  1  0  0  0  0
 17 53  1  0  0  0  0
 18 54  1  0  0  0  0
 18 55  1  0  0  0  0
 18 56  1  0  0  0  0
 23 35  1  0  0  0  0
 24 42  1  0  0  0  0
M  END
>  <score>
0.4514768123626709

$$$$
PV-002837243187
 OpenBabel08202115463D

 53 53  0  0  0  0  0  0  0  0999 V2000
   -2.1675   -2.9591   -2.0241 C   0  0  0  0  0  0  0  0  0  0  0  0
   -3.2886   -1.9614   -1.7242 C   0  0  1  0  0  0  0  0  0  0  0  0
   -2.7829   -0.5325   -1.6103 C   0  0  0  0  0  0  0  0  0  0  0  0
   -1.6584   -0.3199   -0.6223 C   0  0  0  0  0  0  0  0  0  0  0  0
   -2.5167    1.9592   -0.4222 C   0  0  0  0  0  0  0  0  0  0  0  0
   -0.4750    1.2365    0.7984 C   0  0  0  0  0  0  0  0  0  0  0  0
    0.7118    1.8430    0.0854 C   0  0  0  0  0  0  0  0  0  0  0  0
    2.7493    1.3027    1.3623 C   0  0  0  0  0  0  0  0  0  0  0  0
    3.8168    1.7600    2.3200 C   0  0  0  0  0  0  0  0  0  0  0  0
    4.8943    0.6915    2.4794 C   0  0  0  0  0  0  0  0  0  0  0  0
    5.9994    1.0832    3.4769 C   0  0  0  0  0  0  0  0  0  0  0  0
    7.1731    0.0950    3.4499 C   0  0  0  0  0  0  0  0  0  0  0  0
    5.4472    1.2913    4.8979 C   0  0  0  0  0  0  0  0  0  0  0  0
   -4.3677   -2.0438   -2.7889 C   0  0  0  0  0  0  0  0  0  0  0  0
   -5.7029   -2.0367   -2.4317 C   0  0  0  0  0  0  0  0  0  0  0  0
   -6.6824   -2.0170   -3.4124 C   0  0  0  0  0  0  0  0  0  0  0  0
   -6.3239   -2.0099   -4.7473 C   0  0  0  0  0  0  0  0  0  0  0  0
   -4.9848   -2.0170   -5.1052 C   0  0  0  0  0  0  0  0  0  0  0  0
   -4.0081   -2.0366   -4.1275 C   0  0  0  0  0  0  0  0  0  0  0  0
   -0.8904   -1.2332   -0.3228 O   0  0  0  0  0  0  0  0  0  0  0  0
    2.7744    0.1697    0.8835 O   0  0  0  0  0  0  0  0  0  0  0  0
   -1.5626    0.9030   -0.1112 N   0  0  0  0  0  0  0  0  0  0  0  0
    1.7666    2.1714    1.0459 N   0  0  0  0  0  0  0  0  0  0  0  0
    6.5009    2.3093    3.0572 F   0  0  0  0  0  0  0  0  0  0  0  0
   -7.2757   -1.9960   -5.7001 F   0  0  0  0  0  0  0  0  0  0  0  0
   -1.7003   -2.7031   -2.9521 H   0  0  0  0  0  0  0  0  0  0  0  0
   -2.5767   -3.9455   -2.0912 H   0  0  0  0  0  0  0  0  0  0  0  0
   -1.4416   -2.9262   -1.2386 H   0  0  0  0  0  0  0  0  0  0  0  0
   -3.7269   -2.2311   -0.7861 H   0  0  0  0  0  0  0  0  0  0  0  0
   -3.6043    0.0856   -1.3136 H   0  0  0  0  0  0  0  0  0  0  0  0
   -2.4365   -0.2271   -2.5755 H   0  0  0  0  0  0  0  0  0  0  0  0
   -3.5042    1.6347   -0.1680 H   0  0  0  0  0  0  0  0  0  0  0  0
   -2.4731    2.1825   -1.4677 H   0  0  0  0  0  0  0  0  0  0  0  0
   -2.2737    2.8361    0.1408 H   0  0  0  0  0  0  0  0  0  0  0  0
   -0.1571    0.3435    1.2947 H   0  0  0  0  0  0  0  0  0  0  0  0
   -0.8357    1.9379    1.5214 H   0  0  0  0  0  0  0  0  0  0  0  0
    0.4029    2.7349   -0.4185 H   0  0  0  0  0  0  0  0  0  0  0  0
    1.0904    1.1421   -0.6290 H   0  0  0  0  0  0  0  0  0  0  0  0
    1.7587    3.0529    1.4741 H   0  0  0  0  0  0  0  0  0  0  0  0
    3.3724    1.9550    3.2736 H   0  0  0  0  0  0  0  0  0  0  0  0
    4.2645    2.6563    1.9445 H   0  0  0  0  0  0  0  0  0  0  0  0
    5.3449    0.5190    1.5243 H   0  0  0  0  0  0  0  0  0  0  0  0
    4.4305   -0.2093    2.8234 H   0  0  0  0  0  0  0  0  0  0  0  0
    7.4742   -0.0743    2.4372 H   0  0  0  0  0  0  0  0  0  0  0  0
    6.8693   -0.8313    3.8909 H   0  0  0  0  0  0  0  0  0  0  0  0
    7.9941    0.5015    4.0026 H   0  0  0  0  0  0  0  0  0  0  0  0
    5.0891    0.3590    5.2819 H   0  0  0  0  0  0  0  0  0  0  0  0
    4.6433    1.9968    4.8681 H   0  0  0  0  0  0  0  0  0  0  0  0
    6.2251    1.6627    5.5317 H   0  0  0  0  0  0  0  0  0  0  0  0
   -5.9726   -2.0461   -1.4274 H   0  0  0  0  0  0  0  0  0  0  0  0
   -7.6870   -2.0076   -3.1438 H   0  0  0  0  0  0  0  0  0  0  0  0
   -4.7150   -2.0076   -6.1095 H   0  0  0  0  0  0  0  0  0  0  0  0
   -3.0034   -2.0460   -4.3962 H   0  0  0  0  0  0  0  0  0  0  0  0
  1  2  1  0  0  0  0
  1 26  1  0  0  0  0
  1 27  1  0  0  0  0
  1 28  1  0  0  0  0
  2  3  1  0  0  0  0
  2 14  1  0  0  0  0
  2 29  1  1  0  0  0
  3  4  1  0  0  0  0
  3 30  1  0  0  0  0
  3 31  1  0  0  0  0
  4 22  1  0  0  0  0
  4 20  2  0  0  0  0
  5 22  1  0  0  0  0
  5 32  1  0  0  0  0
  5 33  1  0  0  0  0
  5 34  1  0  0  0  0
  6 22  1  0  0  0  0
  6  7  1  0  0  0  0
  6 35  1  0  0  0  0
  6 36  1  0  0  0  0
  7 23  1  0  0  0  0
  7 37  1  0  0  0  0
  7 38  1  0  0  0  0
  8 23  1  0  0  0  0
  8  9  1  0  0  0  0
  8 21  2  0  0  0  0
  9 10  1  0  0  0  0
  9 40  1  0  0  0  0
  9 41  1  0  0  0  0
 10 11  1  0  0  0  0
 10 42  1  0  0  0  0
 10 43  1  0  0  0  0
 11 12  1  0  0  0  0
 11 13  1  0  0  0  0
 11 24  1  0  0  0  0
 12 44  1  0  0  0  0
 12 45  1  0  0  0  0
 12 46  1  0  0  0  0
 13 47  1  0  0  0  0
 13 48  1  0  0  0  0
 13 49  1  0  0  0  0
 14 19  1  0  0  0  0
 14 15  2  0  0  0  0
 15 16  1  0  0  0  0
 15 50  1  0  0  0  0
 16 51  1  0  0  0  0
 16 17  2  0  0  0  0
 17 25  1  0  0  0  0
 17 18  1  0  0  0  0
 18 52  1  0  0  0  0
 18 19  2  0  0  0  0
 19 53  1  0  0  0  0
 23 39  1  0  0  0  0
M  END
>  <score>
0.45152038335800171

$$$$
Z3867894264
 OpenBabel08202115463D

 46 48  0  0  0  0  0  0  0  0999 V2000
    4.9421    2.9127    2.1452 C   0  0  0  0  0  0  0  0  0  0  0  0
    4.2169    1.2093    3.7043 C   0  0  0  0  0  0  0  0  0  0  0  0
    2.6389    2.1695    2.1312 C   0  0  1  0  0  0  0  0  0  0  0  0
    2.4565    2.6330    0.6792 C   0  0  0  0  0  0  0  0  0  0  0  0
    2.8163    1.5409   -0.3404 C   0  0  0  0  0  0  0  0  0  0  0  0
    1.9610    0.2655   -0.0784 C   0  0  2  0  0  0  0  0  0  0  0  0
    0.5178    0.5570   -0.4409 C   0  0  0  0  0  0  0  0  0  0  0  0
   -1.4942   -0.5720   -1.2288 C   0  0  0  0  0  0  0  0  0  0  0  0
   -3.4141   -1.2493   -1.8524 C   0  0  0  0  0  0  0  0  0  0  0  0
   -4.4582   -2.1921   -2.3245 C   0  0  0  0  0  0  0  0  0  0  0  0
   -5.7599   -1.8176   -2.6188 C   0  0  0  0  0  0  0  0  0  0  0  0
   -6.6711   -2.7638   -3.0485 C   0  0  0  0  0  0  0  0  0  0  0  0
   -6.2816   -4.0865   -3.1903 C   0  0  0  0  0  0  0  0  0  0  0  0
   -4.9837   -4.4602   -2.8969 C   0  0  0  0  0  0  0  0  0  0  0  0
   -4.0699   -3.5110   -2.4659 C   0  0  0  0  0  0  0  0  0  0  0  0
   -3.5400    0.0665   -1.5776 C   0  0  0  0  0  0  0  0  0  0  0  0
    2.0283   -0.1624    1.3889 C   0  0  0  0  0  0  0  0  0  0  0  0
    1.7167    0.9672    2.3783 C   0  0  0  0  0  0  0  0  0  0  0  0
    4.0407    1.7746    2.3542 N   0  0  0  0  0  0  0  0  0  0  0  0
   -0.1995   -0.4986   -0.8966 N   0  0  0  0  0  0  0  0  0  0  0  0
   -2.1086   -1.6508   -1.6289 N   0  0  0  0  0  0  0  0  0  0  0  0
    0.0430    1.6925   -0.3215 O   0  0  0  0  0  0  0  0  0  0  0  0
   -2.3010    0.5203   -1.1715 O   0  0  0  0  0  0  0  0  0  0  0  0
   -7.3732   -5.3154   -3.7300 Cl  0  0  0  0  0  0  0  0  0  0  0  0
    4.9551    3.1721    1.1072 H   0  0  0  0  0  0  0  0  0  0  0  0
    5.9301    2.6471    2.4586 H   0  0  0  0  0  0  0  0  0  0  0  0
    4.5987    3.7492    2.7173 H   0  0  0  0  0  0  0  0  0  0  0  0
    5.2139    0.8348    3.8074 H   0  0  0  0  0  0  0  0  0  0  0  0
    3.5195    0.4110    3.8502 H   0  0  0  0  0  0  0  0  0  0  0  0
    4.0452    1.9717    4.4351 H   0  0  0  0  0  0  0  0  0  0  0  0
    2.3814    2.9650    2.7988 H   0  0  0  0  0  0  0  0  0  0  0  0
    1.4338    2.9125    0.5350 H   0  0  0  0  0  0  0  0  0  0  0  0
    3.0861    3.4812    0.5089 H   0  0  0  0  0  0  0  0  0  0  0  0
    2.6216    1.9012   -1.3289 H   0  0  0  0  0  0  0  0  0  0  0  0
    3.8539    1.2971   -0.2470 H   0  0  0  0  0  0  0  0  0  0  0  0
    2.3290   -0.5316   -0.6901 H   0  0  0  0  0  0  0  0  0  0  0  0
    0.3049   -1.3327   -0.9982 H   0  0  0  0  0  0  0  0  0  0  0  0
   -6.0510   -0.8244   -2.5162 H   0  0  0  0  0  0  0  0  0  0  0  0
   -7.6488   -2.4834   -3.2654 H   0  0  0  0  0  0  0  0  0  0  0  0
   -4.6926   -5.4533   -2.9994 H   0  0  0  0  0  0  0  0  0  0  0  0
   -3.0922   -3.7913   -2.2490 H   0  0  0  0  0  0  0  0  0  0  0  0
   -4.4086    0.6328   -1.6570 H   0  0  0  0  0  0  0  0  0  0  0  0
    1.3210   -0.9503    1.5431 H   0  0  0  0  0  0  0  0  0  0  0  0
    3.0151   -0.5239    1.5898 H   0  0  0  0  0  0  0  0  0  0  0  0
    0.6989    1.2731    2.2539 H   0  0  0  0  0  0  0  0  0  0  0  0
    1.8631    0.6109    3.3766 H   0  0  0  0  0  0  0  0  0  0  0  0
  1 19  1  0  0  0  0
  1 25  1  0  0  0  0
  1 26  1  0  0  0  0
  1 27  1  0  0  0  0
  2 19  1  0  0  0  0
  2 28  1  0  0  0  0
  2 29  1  0  0  0  0
  2 30  1  0  0  0  0
  3 19  1  0  0  0  0
  3  4  1  0  0  0  0
  3 18  1  0  0  0  0
  3 31  1  1  0  0  0
  4  5  1  0  0  0  0
  4 32  1  0  0  0  0
  4 33  1  0  0  0  0
  5  6  1  0  0  0  0
  5 34  1  0  0  0  0
  5 35  1  0  0  0  0
  6  7  1  0  0  0  0
  6 17  1  0  0  0  0
  6 36  1  6  0  0  0
  7 20  1  0  0  0  0
  7 22  2  0  0  0  0
  8 20  1  0  0  0  0
  8 23  1  0  0  0  0
  8 21  2  0  0  0  0
  9 21  1  0  0  0  0
  9 10  1  0  0  0  0
  9 16  2  0  0  0  0
 10 15  1  0  0  0  0
 10 11  2  0  0  0  0
 11 12  1  0  0  0  0
 11 38  1  0  0  0  0
 12 39  1  0  0  0  0
 12 13  2  0  0  0  0
 13 24  1  0  0  0  0
 13 14  1  0  0  0  0
 14 40  1  0  0  0  0
 14 15  2  0  0  0  0
 15 41  1  0  0  0  0
 16 23  1  0  0  0  0
 16 42  1  0  0  0  0
 17 18  1  0  0  0  0
 17 43  1  0  0  0  0
 17 44  1  0  0  0  0
 18 45  1  0  0  0  0
 18 46  1  0  0  0  0
 20 37  1  0  0  0  0
M  END
>  <score>
0.45152437686920166

$$$$
PV-003977401415
 OpenBabel08202115463D

 55 57  0  0  0  0  0  0  0  0999 V2000
    0.6353    1.1258    1.9857 C   0  0  0  0  0  0  0  0  0  0  0  0
    0.9718    1.2614    0.4986 C   0  0  1  0  0  0  0  0  0  0  0  0
   -0.2807    1.1407   -0.3656 C   0  0  0  0  0  0  0  0  0  0  0  0
   -0.6928   -0.2872   -0.6253 C   0  0  0  0  0  0  0  0  0  0  0  0
   -2.4511   -1.6655   -1.5984 C   0  0  0  0  0  0  0  0  0  0  0  0
   -3.8064   -1.7265   -2.1992 C   0  0  0  0  0  0  0  0  0  0  0  0
   -4.5246   -0.7209   -2.7430 C   0  0  0  0  0  0  0  0  0  0  0  0
   -5.6472   -2.5764   -2.8493 C   0  0  0  0  0  0  0  0  0  0  0  0
   -6.8033   -3.4856   -3.1769 C   0  0  0  0  0  0  0  0  0  0  0  0
   -7.7296   -3.1990   -4.3166 C   0  0  0  0  0  0  0  0  0  0  0  0
   -8.2385   -3.1583   -2.9066 C   0  0  0  0  0  0  0  0  0  0  0  0
    1.7182    2.5528    0.2240 C   0  0  0  0  0  0  0  0  0  0  0  0
    3.0809    2.6088    0.8787 C   0  0  0  0  0  0  0  0  0  0  0  0
    3.5051    1.8300    3.1670 C   0  0  0  0  0  0  0  0  0  0  0  0
    4.2034    0.6356    2.5307 C   0  0  1  0  0  0  0  0  0  0  0  0
    3.6187   -0.6574    3.0957 C   0  0  0  0  0  0  0  0  0  0  0  0
    4.0641    0.6732    1.0285 C   0  0  0  0  0  0  0  0  0  0  0  0
    5.4284    1.0447    0.5215 C   0  0  0  0  0  0  0  0  0  0  0  0
    5.6760    0.6970    2.7669 C   0  0  0  0  0  0  0  0  0  0  0  0
   -1.9691   -0.4373   -1.3265 N   0  0  0  0  0  0  0  0  0  0  0  0
   -4.5265   -2.9063   -2.2692 N   0  0  0  0  0  0  0  0  0  0  0  0
    2.9994    2.7450    2.3351 N   0  0  0  0  0  0  0  0  0  0  0  0
   -1.8203   -2.6890   -1.3695 O   0  0  0  0  0  0  0  0  0  0  0  0
   -5.7229   -1.2577   -3.1696 O   0  0  0  0  0  0  0  0  0  0  0  0
    3.4962    1.9542    4.3905 O   0  0  0  0  0  0  0  0  0  0  0  0
    6.2013    1.4325    1.6512 O   0  0  0  0  0  0  0  0  0  0  0  0
   -0.3548    0.7346    2.0937 H   0  0  0  0  0  0  0  0  0  0  0  0
    0.6917    2.0868    2.4530 H   0  0  0  0  0  0  0  0  0  0  0  0
    1.3337    0.4613    2.4501 H   0  0  0  0  0  0  0  0  0  0  0  0
    1.6217    0.4516    0.2403 H   0  0  0  0  0  0  0  0  0  0  0  0
   -0.0914    1.6155   -1.3055 H   0  0  0  0  0  0  0  0  0  0  0  0
   -1.0854    1.6409    0.1316 H   0  0  0  0  0  0  0  0  0  0  0  0
   -0.7691   -0.7886    0.3168 H   0  0  0  0  0  0  0  0  0  0  0  0
    0.0688   -0.7515   -1.2164 H   0  0  0  0  0  0  0  0  0  0  0  0
   -2.4739    0.3573   -1.5987 H   0  0  0  0  0  0  0  0  0  0  0  0
   -4.2300    0.2731   -2.8253 H   0  0  0  0  0  0  0  0  0  0  0  0
   -6.5725   -4.5243   -3.0637 H   0  0  0  0  0  0  0  0  0  0  0  0
   -8.0320   -3.9889   -4.9719 H   0  0  0  0  0  0  0  0  0  0  0  0
   -7.6265   -2.2918   -4.8746 H   0  0  0  0  0  0  0  0  0  0  0  0
   -8.4984   -2.2221   -2.4584 H   0  0  0  0  0  0  0  0  0  0  0  0
   -8.9039   -3.9193   -2.5558 H   0  0  0  0  0  0  0  0  0  0  0  0
    1.1314    3.3685    0.5916 H   0  0  0  0  0  0  0  0  0  0  0  0
    1.8456    2.6526   -0.8337 H   0  0  0  0  0  0  0  0  0  0  0  0
    3.6160    3.4477    0.4853 H   0  0  0  0  0  0  0  0  0  0  0  0
    3.6096    1.7076    0.6477 H   0  0  0  0  0  0  0  0  0  0  0  0
    2.5585    3.5348    2.7124 H   0  0  0  0  0  0  0  0  0  0  0  0
    2.5805   -0.5151    3.3124 H   0  0  0  0  0  0  0  0  0  0  0  0
    4.1374   -0.9206    3.9938 H   0  0  0  0  0  0  0  0  0  0  0  0
    3.7284   -1.4422    2.3767 H   0  0  0  0  0  0  0  0  0  0  0  0
    3.3417    1.4064    0.7361 H   0  0  0  0  0  0  0  0  0  0  0  0
    3.7718   -0.2854    0.6538 H   0  0  0  0  0  0  0  0  0  0  0  0
    5.3544    1.8583   -0.1696 H   0  0  0  0  0  0  0  0  0  0  0  0
    5.8814    0.2049    0.0373 H   0  0  0  0  0  0  0  0  0  0  0  0
    5.8885    1.2039    3.6849 H   0  0  0  0  0  0  0  0  0  0  0  0
    6.0931   -0.2879    2.7978 H   0  0  0  0  0  0  0  0  0  0  0  0
  1  2  1  0  0  0  0
  1 27  1  0  0  0  0
  1 28  1  0  0  0  0
  1 29  1  0  0  0  0
  2  3  1  0  0  0  0
  2 12  1  0  0  0  0
  2 30  1  6  0  0  0
  3  4  1  0  0  0  0
  3 31  1  0  0  0  0
  3 32  1  0  0  0  0
  4 20  1  0  0  0  0
  4 33  1  0  0  0  0
  4 34  1  0  0  0  0
  5 20  1  0  0  0  0
  5  6  1  0  0  0  0
  5 23  2  0  0  0  0
  6 21  1  0  0  0  0
  6  7  2  0  0  0  0
  7 24  1  0  0  0  0
  7 36  1  0  0  0  0
  8 24  1  0  0  0  0
  8  9  1  0  0  0  0
  8 21  2  0  0  0  0
  9 10  1  0  0  0  0
  9 11  1  0  0  0  0
  9 37  1  0  0  0  0
 10 11  1  0  0  0  0
 10 38  1  0  0  0  0
 10 39  1  0  0  0  0
 11 40  1  0  0  0  0
 11 41  1  0  0  0  0
 12 13  1  0  0  0  0
 12 42  1  0  0  0  0
 12 43  1  0  0  0  0
 13 22  1  0  0  0  0
 13 44  1  0  0  0  0
 13 45  1  0  0  0  0
 14 22  1  0  0  0  0
 14 25  2  0  0  0  0
 15 14  1  1  0  0  0
 15 16  1  0  0  0  0
 15 17  1  0  0  0  0
 15 19  1  0  0  0  0
 16 47  1  0  0  0  0
 16 48  1  0  0  0  0
 16 49  1  0  0  0  0
 17 18  1  0  0  0  0
 17 50  1  0  0  0  0
 17 51  1  0  0  0  0
 18 26  1  0  0  0  0
 18 52  1  0  0  0  0
 18 53  1  0  0  0  0
 19 26  1  0  0  0  0
 19 54  1  0  0  0  0
 19 55  1  0  0  0  0
 20 35  1  0  0  0  0
 22 46  1  0  0  0  0
M  END
>  <score>
0.45159435272216797

$$$$
PV-003160078853
 OpenBabel08202115463D

 58 59  0  0  0  0  0  0  0  0999 V2000
    6.3156    1.4892    3.6964 C   0  0  0  0  0  0  0  0  0  0  0  0
    5.2186    0.9789    2.7755 C   0  0  0  0  0  0  0  0  0  0  0  0
    4.7732   -0.3882    3.2568 C   0  0  0  0  0  0  0  0  0  0  0  0
    6.0162    2.2386    0.9186 C   0  0  0  0  0  0  0  0  0  0  0  0
    4.4738    0.4427    0.5110 C   0  0  0  0  0  0  0  0  0  0  0  0
    3.2742    1.3294    0.8077 C   0  0  0  0  0  0  0  0  0  0  0  0
    2.1011    0.9650   -0.0861 C   0  0  0  0  0  0  0  0  0  0  0  0
    0.8193    1.7013    0.2818 C   0  0  0  0  0  0  0  0  0  0  0  0
   -1.6141    1.8445   -0.2328 C   0  0  0  0  0  0  0  0  0  0  0  0
   -2.3750    1.2672   -1.4095 C   0  0  0  0  0  0  0  0  0  0  0  0
   -1.7096   -0.0642   -1.6653 C   0  0  2  0  0  0  0  0  0  0  0  0
   -2.2275   -1.1180   -0.7113 C   0  0  0  0  0  0  0  0  0  0  0  0
   -4.6211   -0.6777   -0.1545 C   0  0  0  0  0  0  0  0  0  0  0  0
   -4.0624   -2.3097   -1.8524 C   0  0  0  0  0  0  0  0  0  0  0  0
   -5.5667   -2.3027   -2.1789 C   0  0  0  0  0  0  0  0  0  0  0  0
   -6.4715   -2.9318   -1.1060 C   0  0  0  0  0  0  0  0  0  0  0  0
   -6.0469   -3.4576   -3.0730 C   0  0  0  0  0  0  0  0  0  0  0  0
   -0.2294    0.2165   -1.4150 C   0  0  0  0  0  0  0  0  0  0  0  0
    5.6071    0.9012    1.3626 N   0  0  0  0  0  0  0  0  0  0  0  0
   -0.2615    1.2837   -0.4057 N   0  0  0  0  0  0  0  0  0  0  0  0
   -3.6418   -1.3924   -0.9777 N   0  0  0  0  0  0  0  0  0  0  0  0
    0.8077    2.5825    1.1255 O   0  0  0  0  0  0  0  0  0  0  0  0
   -3.2900   -3.0698   -2.4343 O   0  0  0  0  0  0  0  0  0  0  0  0
   -5.9583   -0.9860   -2.6156 O   0  0  0  0  0  0  0  0  0  0  0  0
   -6.9183   -3.9585   -2.0234 O   0  0  0  0  0  0  0  0  0  0  0  0
    5.9374    1.5650    4.6945 H   0  0  0  0  0  0  0  0  0  0  0  0
    6.6402    2.4530    3.3641 H   0  0  0  0  0  0  0  0  0  0  0  0
    7.1410    0.8086    3.6788 H   0  0  0  0  0  0  0  0  0  0  0  0
    4.3847    1.6439    2.8611 H   0  0  0  0  0  0  0  0  0  0  0  0
    4.0958   -0.8139    2.5463 H   0  0  0  0  0  0  0  0  0  0  0  0
    4.2826   -0.2907    4.2027 H   0  0  0  0  0  0  0  0  0  0  0  0
    5.6268   -1.0249    3.3611 H   0  0  0  0  0  0  0  0  0  0  0  0
    5.1538    2.8665    0.8347 H   0  0  0  0  0  0  0  0  0  0  0  0
    6.4982    2.1660   -0.0339 H   0  0  0  0  0  0  0  0  0  0  0  0
    6.6949    2.6586    1.6313 H   0  0  0  0  0  0  0  0  0  0  0  0
    4.2375   -0.5757    0.7388 H   0  0  0  0  0  0  0  0  0  0  0  0
    4.7395    0.5252   -0.5221 H   0  0  0  0  0  0  0  0  0  0  0  0
    3.5421    2.3510    0.6359 H   0  0  0  0  0  0  0  0  0  0  0  0
    2.9884    1.2023    1.8309 H   0  0  0  0  0  0  0  0  0  0  0  0
    1.9248   -0.0872   -0.0046 H   0  0  0  0  0  0  0  0  0  0  0  0
    2.3549    1.2074   -1.0969 H   0  0  0  0  0  0  0  0  0  0  0  0
   -2.0449    1.5304    0.6950 H   0  0  0  0  0  0  0  0  0  0  0  0
   -1.5954    2.9135   -0.2741 H   0  0  0  0  0  0  0  0  0  0  0  0
   -3.4080    1.1339   -1.1645 H   0  0  0  0  0  0  0  0  0  0  0  0
   -2.2901    1.9041   -2.2651 H   0  0  0  0  0  0  0  0  0  0  0  0
   -1.8720   -0.3842   -2.6733 H   0  0  0  0  0  0  0  0  0  0  0  0
   -2.1191   -0.7680    0.2940 H   0  0  0  0  0  0  0  0  0  0  0  0
   -1.6631   -2.0180   -0.8391 H   0  0  0  0  0  0  0  0  0  0  0  0
   -4.2411    0.2917    0.0920 H   0  0  0  0  0  0  0  0  0  0  0  0
   -4.8010   -1.2291    0.7447 H   0  0  0  0  0  0  0  0  0  0  0  0
   -5.5364   -0.5739   -0.6989 H   0  0  0  0  0  0  0  0  0  0  0  0
   -6.5760   -1.0613   -3.3465 H   0  0  0  0  0  0  0  0  0  0  0  0
   -7.2547   -2.2845   -0.7704 H   0  0  0  0  0  0  0  0  0  0  0  0
   -5.9364   -3.3128   -0.2614 H   0  0  0  0  0  0  0  0  0  0  0  0
   -6.5692   -3.1354   -3.9495 H   0  0  0  0  0  0  0  0  0  0  0  0
   -5.2703   -4.1394   -3.3503 H   0  0  0  0  0  0  0  0  0  0  0  0
    0.2686   -0.6529   -1.0394 H   0  0  0  0  0  0  0  0  0  0  0  0
    0.2558    0.5477   -2.3093 H   0  0  0  0  0  0  0  0  0  0  0  0
  1  2  1  0  0  0  0
  1 26  1  0  0  0  0
  1 27  1  0  0  0  0
  1 28  1  0  0  0  0
  2  3  1  0  0  0  0
  2 19  1  0  0  0  0
  2 29  1  0  0  0  0
  3 30  1  0  0  0  0
  3 31  1  0  0  0  0
  3 32  1  0  0  0  0
  4 19  1  0  0  0  0
  4 33  1  0  0  0  0
  4 34  1  0  0  0  0
  4 35  1  0  0  0  0
  5 19  1  0  0  0  0
  5  6  1  0  0  0  0
  5 36  1  0  0  0  0
  5 37  1  0  0  0  0
  6  7  1  0  0  0  0
  6 38  1  0  0  0  0
  6 39  1  0  0  0  0
  7  8  1  0  0  0  0
  7 40  1  0  0  0  0
  7 41  1  0  0  0  0
  8 20  1  0  0  0  0
  8 22  2  0  0  0  0
  9 20  1  0  0  0  0
  9 10  1  0  0  0  0
  9 42  1  0  0  0  0
  9 43  1  0  0  0  0
 10 11  1  0  0  0  0
 10 44  1  0  0  0  0
 10 45  1  0  0  0  0
 11 12  1  0  0  0  0
 11 18  1  0  0  0  0
 11 46  1  6  0  0  0
 12 21  1  0  0  0  0
 12 47  1  0  0  0  0
 12 48  1  0  0  0  0
 13 21  1  0  0  0  0
 13 49  1  0  0  0  0
 13 50  1  0  0  0  0
 13 51  1  0  0  0  0
 14 21  1  0  0  0  0
 14 15  1  0  0  0  0
 14 23  2  0  0  0  0
 15 24  1  0  0  0  0
 15 16  1  0  0  0  0
 15 17  1  0  0  0  0
 16 25  1  0  0  0  0
 16 53  1  0  0  0  0
 16 54  1  0  0  0  0
 17 25  1  0  0  0  0
 17 55  1  0  0  0  0
 17 56  1  0  0  0  0
 18 20  1  0  0  0  0
 18 57  1  0  0  0  0
 18 58  1  0  0  0  0
 24 52  1  0  0  0  0
M  END
>  <score>
0.45159471035003662

$$$$
Z3839414844
 OpenBabel08202115463D

 48 50  0  0  0  0  0  0  0  0999 V2000
    4.0161    0.9436    3.5467 C   0  0  0  0  0  0  0  0  0  0  0  0
    5.3864    1.3907    3.0642 C   0  0  1  0  0  0  0  0  0  0  0  0
    6.0251    0.7166    1.8867 C   0  0  0  0  0  0  0  0  0  0  0  0
    5.5364    2.1264    1.7698 C   0  0  1  0  0  0  0  0  0  0  0  0
    4.3439    3.6970    0.2472 C   0  0  0  0  0  0  0  0  0  0  0  0
    3.2725    1.6161    0.8628 C   0  0  0  0  0  0  0  0  0  0  0  0
    0.9087    1.5668    0.1003 C   0  0  0  0  0  0  0  0  0  0  0  0
    0.8035    0.1916   -0.0385 C   0  0  0  0  0  0  0  0  0  0  0  0
   -0.4078   -0.3773   -0.3840 C   0  0  0  0  0  0  0  0  0  0  0  0
   -1.5186    0.4268   -0.5866 C   0  0  0  0  0  0  0  0  0  0  0  0
   -2.8133   -0.1940   -0.9510 C   0  0  0  0  0  0  0  0  0  0  0  0
   -4.2054   -1.6713   -1.4434 C   0  0  0  0  0  0  0  0  0  0  0  0
   -4.9332   -2.9614   -1.8409 C   0  0  0  0  0  0  0  0  0  0  0  0
   -4.9607   -3.1439   -3.3614 C   0  0  0  0  0  0  0  0  0  0  0  0
   -6.3753   -2.8918   -1.3345 C   0  0  0  0  0  0  0  0  0  0  0  0
   -4.2407   -4.1839   -1.2294 C   0  0  0  0  0  0  0  0  0  0  0  0
   -1.4135    1.7980   -0.4482 C   0  0  0  0  0  0  0  0  0  0  0  0
   -0.1988    2.3687   -0.1016 C   0  0  0  0  0  0  0  0  0  0  0  0
    4.3469    2.4255    0.9710 N   0  0  0  0  0  0  0  0  0  0  0  0
    2.1238    2.2026    0.4467 N   0  0  0  0  0  0  0  0  0  0  0  0
   -3.9141    0.4922   -1.1067 N   0  0  0  0  0  0  0  0  0  0  0  0
   -2.9465   -1.5535   -1.1531 N   0  0  0  0  0  0  0  0  0  0  0  0
    3.3170    0.4001    1.1258 O   0  0  0  0  0  0  0  0  0  0  0  0
   -4.8592   -0.4952   -1.4495 O   0  0  0  0  0  0  0  0  0  0  0  0
    4.0237    0.8569    4.6131 H   0  0  0  0  0  0  0  0  0  0  0  0
    3.7779   -0.0054    3.1136 H   0  0  0  0  0  0  0  0  0  0  0  0
    3.2820    1.6646    3.2529 H   0  0  0  0  0  0  0  0  0  0  0  0
    6.0608    1.6887    3.8396 H   0  0  0  0  0  0  0  0  0  0  0  0
    5.5109   -0.0717    1.3777 H   0  0  0  0  0  0  0  0  0  0  0  0
    7.0755    0.5132    1.8915 H   0  0  0  0  0  0  0  0  0  0  0  0
    6.3029    2.8729    1.7582 H   0  0  0  0  0  0  0  0  0  0  0  0
    5.2332    4.2438    0.4821 H   0  0  0  0  0  0  0  0  0  0  0  0
    3.4871    4.2693    0.5357 H   0  0  0  0  0  0  0  0  0  0  0  0
    4.3093    3.5079   -0.8053 H   0  0  0  0  0  0  0  0  0  0  0  0
    2.1365    3.1801    0.3779 H   0  0  0  0  0  0  0  0  0  0  0  0
    1.6360   -0.4120    0.1174 H   0  0  0  0  0  0  0  0  0  0  0  0
   -0.4858   -1.4087   -0.4921 H   0  0  0  0  0  0  0  0  0  0  0  0
   -5.9743   -3.1336   -3.7041 H   0  0  0  0  0  0  0  0  0  0  0  0
   -4.5077   -4.0791   -3.6164 H   0  0  0  0  0  0  0  0  0  0  0  0
   -4.4193   -2.3464   -3.8259 H   0  0  0  0  0  0  0  0  0  0  0  0
   -6.9923   -2.4287   -2.0760 H   0  0  0  0  0  0  0  0  0  0  0  0
   -6.4091   -2.3166   -0.4329 H   0  0  0  0  0  0  0  0  0  0  0  0
   -6.7331   -3.8813   -1.1405 H   0  0  0  0  0  0  0  0  0  0  0  0
   -3.1896   -4.1330   -1.4232 H   0  0  0  0  0  0  0  0  0  0  0  0
   -4.6408   -5.0753   -1.6654 H   0  0  0  0  0  0  0  0  0  0  0  0
   -4.4081   -4.1968   -0.1727 H   0  0  0  0  0  0  0  0  0  0  0  0
   -2.2459    2.4016   -0.6041 H   0  0  0  0  0  0  0  0  0  0  0  0
   -0.1207    3.4001    0.0064 H   0  0  0  0  0  0  0  0  0  0  0  0
  1  2  1  0  0  0  0
  1 25  1  0  0  0  0
  1 26  1  0  0  0  0
  1 27  1  0  0  0  0
  2  3  1  0  0  0  0
  2  4  1  0  0  0  0
  2 28  1  1  0  0  0
  3  4  1  0  0  0  0
  3 29  1  0  0  0  0
  3 30  1  0  0  0  0
  4 19  1  0  0  0  0
  4 31  1  6  0  0  0
  5 19  1  0  0  0  0
  5 32  1  0  0  0  0
  5 33  1  0  0  0  0
  5 34  1  0  0  0  0
  6 19  1  0  0  0  0
  6 20  1  0  0  0  0
  6 23  2  0  0  0  0
  7 20  1  0  0  0  0
  7 18  1  0  0  0  0
  7  8  2  0  0  0  0
  8  9  1  0  0  0  0
  8 36  1  0  0  0  0
  9 37  1  0  0  0  0
  9 10  2  0  0  0  0
 10 11  1  0  0  0  0
 10 17  1  0  0  0  0
 11 22  1  0  0  0  0
 11 21  2  0  0  0  0
 12 24  1  0  0  0  0
 12 13  1  0  0  0  0
 12 22  2  0  0  0  0
 13 14  1  0  0  0  0
 13 15  1  0  0  0  0
 13 16  1  0  0  0  0
 14 38  1  0  0  0  0
 14 39  1  0  0  0  0
 14 40  1  0  0  0  0
 15 41  1  0  0  0  0
 15 42  1  0  0  0  0
 15 43  1  0  0  0  0
 16 44  1  0  0  0  0
 16 45  1  0  0  0  0
 16 46  1  0  0  0  0
 17 47  1  0  0  0  0
 17 18  2  0  0  0  0
 18 48  1  0  0  0  0
 20 35  1  0  0  0  0
 21 24  1  0  0  0  0
M  END
>  <score>
0.45171058177947998

$$$$
PV-003675474092
 OpenBabel08202115463D

 53 55  0  0  0  0  0  0  0  0999 V2000
    4.1240    3.4368    1.5270 C   0  0  0  0  0  0  0  0  0  0  0  0
    4.3223    2.1486    2.3447 C   0  0  0  0  0  0  0  0  0  0  0  0
    2.9826    1.6720    2.8713 C   0  0  0  0  0  0  0  0  0  0  0  0
    2.3386    1.2954    0.5230 C   0  0  1  0  0  0  0  0  0  0  0  0
    3.0000    0.1163   -0.2134 C   0  0  0  0  0  0  0  0  0  0  0  0
    1.6057   -0.3648   -0.5975 C   0  0  0  0  0  0  0  0  0  0  0  0
    1.0387    1.0405   -0.3197 C   0  0  1  0  0  0  0  0  0  0  0  0
   -0.2544    1.0609    0.4790 C   0  0  0  0  0  0  0  0  0  0  0  0
   -1.5822   -0.8366   -0.3583 C   0  0  0  0  0  0  0  0  0  0  0  0
   -2.7694   -1.2713   -1.1311 C   0  0  0  0  0  0  0  0  0  0  0  0
   -3.6817   -0.2955   -1.4858 C   0  0  0  0  0  0  0  0  0  0  0  0
   -4.8114   -0.6348   -2.2139 C   0  0  0  0  0  0  0  0  0  0  0  0
   -5.0283   -1.9497   -2.5805 C   0  0  0  0  0  0  0  0  0  0  0  0
   -6.2620   -2.3210   -3.3689 C   0  0  0  0  0  0  0  0  0  0  0  0
   -7.4011   -2.7476   -2.4781 C   0  0  0  0  0  0  0  0  0  0  0  0
   -4.1132   -2.9282   -2.2246 C   0  0  0  0  0  0  0  0  0  0  0  0
   -2.9868   -2.5900   -1.4987 C   0  0  0  0  0  0  0  0  0  0  0  0
    5.1456    1.0617    1.6273 C   0  0  0  0  0  0  0  0  0  0  0  0
    6.0364    0.9522    2.8617 C   0  0  0  0  0  0  0  0  0  0  0  0
    5.4328    2.2391    3.4170 C   0  0  0  0  0  0  0  0  0  0  0  0
    2.6761    1.8146    4.0435 O   0  0  0  0  0  0  0  0  0  0  0  0
   -0.8378   -1.6548    0.1564 O   0  0  0  0  0  0  0  0  0  0  0  0
   -8.2265   -1.9349   -2.0636 O   0  0  0  0  0  0  0  0  0  0  0  0
    2.1742    1.0928    1.9696 N   0  0  0  0  0  0  0  0  0  0  0  0
   -1.3813    0.4919   -0.2623 N   0  0  0  0  0  0  0  0  0  0  0  0
   -7.4473   -4.0549   -2.1762 N   0  0  0  0  0  0  0  0  0  0  0  0
    3.4904    4.1088    2.0672 H   0  0  0  0  0  0  0  0  0  0  0  0
    3.6706    3.1967    0.5880 H   0  0  0  0  0  0  0  0  0  0  0  0
    5.0731    3.9008    1.3571 H   0  0  0  0  0  0  0  0  0  0  0  0
    1.4492    0.5147    2.2869 H   0  0  0  0  0  0  0  0  0  0  0  0
    2.8019    2.2434    0.3455 H   0  0  0  0  0  0  0  0  0  0  0  0
    3.5415   -0.5546    0.4203 H   0  0  0  0  0  0  0  0  0  0  0  0
    3.6150    0.3998   -1.0418 H   0  0  0  0  0  0  0  0  0  0  0  0
    1.2154   -1.1270    0.0441 H   0  0  0  0  0  0  0  0  0  0  0  0
    1.5177   -0.6767   -1.6172 H   0  0  0  0  0  0  0  0  0  0  0  0
    0.9343    1.6621   -1.1843 H   0  0  0  0  0  0  0  0  0  0  0  0
   -0.4862    2.0749    0.7302 H   0  0  0  0  0  0  0  0  0  0  0  0
   -0.1127    0.4943    1.3755 H   0  0  0  0  0  0  0  0  0  0  0  0
   -2.0115    1.0987   -0.7041 H   0  0  0  0  0  0  0  0  0  0  0  0
   -3.5205    0.6933   -1.2065 H   0  0  0  0  0  0  0  0  0  0  0  0
   -5.4959    0.1000   -2.4843 H   0  0  0  0  0  0  0  0  0  0  0  0
   -6.0194   -3.1282   -4.0280 H   0  0  0  0  0  0  0  0  0  0  0  0
   -6.5725   -1.4726   -3.9423 H   0  0  0  0  0  0  0  0  0  0  0  0
   -6.7405   -4.6559   -2.4918 H   0  0  0  0  0  0  0  0  0  0  0  0
   -8.1878   -4.4082   -1.6403 H   0  0  0  0  0  0  0  0  0  0  0  0
   -4.2743   -3.9170   -2.5039 H   0  0  0  0  0  0  0  0  0  0  0  0
   -2.3024   -3.3249   -1.2283 H   0  0  0  0  0  0  0  0  0  0  0  0
    4.5963    0.1717    1.4011 H   0  0  0  0  0  0  0  0  0  0  0  0
    5.6520    1.4020    0.7484 H   0  0  0  0  0  0  0  0  0  0  0  0
    7.0834    1.0172    2.6510 H   0  0  0  0  0  0  0  0  0  0  0  0
    5.8458    0.0869    3.4616 H   0  0  0  0  0  0  0  0  0  0  0  0
    6.0649    3.0975    3.3252 H   0  0  0  0  0  0  0  0  0  0  0  0
    5.0800    2.1614    4.4242 H   0  0  0  0  0  0  0  0  0  0  0  0
  1  2  1  0  0  0  0
  1 27  1  0  0  0  0
  1 28  1  0  0  0  0
  1 29  1  0  0  0  0
  2  3  1  0  0  0  0
  2 18  1  0  0  0  0
  2 20  1  0  0  0  0
  3 24  1  0  0  0  0
  3 21  2  0  0  0  0
  4 24  1  0  0  0  0
  4  5  1  0  0  0  0
  4  7  1  0  0  0  0
  4 31  1  6  0  0  0
  5  6  1  0  0  0  0
  5 32  1  0  0  0  0
  5 33  1  0  0  0  0
  6  7  1  0  0  0  0
  6 34  1  0  0  0  0
  6 35  1  0  0  0  0
  7  8  1  0  0  0  0
  7 36  1  6  0  0  0
  8 25  1  0  0  0  0
  8 37  1  0  0  0  0
  8 38  1  0  0  0  0
  9 25  1  0  0  0  0
  9 10  1  0  0  0  0
  9 22  2  0  0  0  0
 10 17  1  0  0  0  0
 10 11  2  0  0  0  0
 11 12  1  0  0  0  0
 11 40  1  0  0  0  0
 12 41  1  0  0  0  0
 12 13  2  0  0  0  0
 13 14  1  0  0  0  0
 13 16  1  0  0  0  0
 14 15  1  0  0  0  0
 14 42  1  0  0  0  0
 14 43  1  0  0  0  0
 15 26  1  0  0  0  0
 15 23  2  0  0  0  0
 16 46  1  0  0  0  0
 16 17  2  0  0  0  0
 17 47  1  0  0  0  0
 18 19  1  0  0  0  0
 18 48  1  0  0  0  0
 18 49  1  0  0  0  0
 19 20  1  0  0  0  0
 19 50  1  0  0  0  0
 19 51  1  0  0  0  0
 20 52  1  0  0  0  0
 20 53  1  0  0  0  0
 24 30  1  0  0  0  0
 25 39  1  0  0  0  0
 26 44  1  0  0  0  0
 26 45  1  0  0  0  0
M  END
>  <score>
0.45181763172149658

$$$$
Z4138488157
 OpenBabel08202115463D

 61 64  0  0  0  0  0  0  0  0999 V2000
   -4.9573   -0.4639   -0.4250 C   0  0  0  0  0  0  0  0  0  0  0  0
   -2.7892   -1.2251   -1.1929 C   0  0  0  0  0  0  0  0  0  0  0  0
   -2.0030    0.0565   -1.0207 C   0  0  0  0  0  0  0  0  0  0  0  0
    0.3857    0.8921   -0.7907 C   0  0  2  0  0  0  0  0  0  0  0  0
    1.7952    0.4560   -0.3774 C   0  0  0  0  0  0  0  0  0  0  0  0
    2.4517    1.8365   -0.1888 C   0  0  2  0  0  0  0  0  0  0  0  0
    3.6152    1.6961    0.7910 C   0  0  0  0  0  0  0  0  0  0  0  0
    3.8869    1.9179    3.1834 C   0  0  0  0  0  0  0  0  0  0  0  0
    5.3868    1.8955    3.0429 C   0  0  0  0  0  0  0  0  0  0  0  0
    6.0967    3.0219    2.6574 C   0  0  0  0  0  0  0  0  0  0  0  0
    7.4600    2.9402    2.4452 C   0  0  0  0  0  0  0  0  0  0  0  0
    8.1183    1.7333    2.6231 C   0  0  0  0  0  0  0  0  0  0  0  0
    7.4103    0.6103    3.0076 C   0  0  0  0  0  0  0  0  0  0  0  0
    6.0429    0.6920    3.2204 C   0  0  0  0  0  0  0  0  0  0  0  0
    1.7715    2.2456    2.0441 C   0  0  0  0  0  0  0  0  0  0  0  0
    1.3817    2.6112    0.6014 C   0  0  2  0  0  0  0  0  0  0  0  0
    0.0527    1.9287    0.3012 C   0  0  0  0  0  0  0  0  0  0  0  0
   -4.7764   -2.4493   -1.7645 C   0  0  0  0  0  0  0  0  0  0  0  0
   -6.2769   -2.3320   -2.0617 C   0  0  0  0  0  0  0  0  0  0  0  0
   -6.8303   -3.6688   -2.5297 C   0  0  0  0  0  0  0  0  0  0  0  0
   -4.7476   -4.3806   -3.3534 C   0  0  0  0  0  0  0  0  0  0  0  0
   -4.0617   -3.0932   -2.9575 C   0  0  0  0  0  0  0  0  0  0  0  0
   -4.2111   -1.0891   -1.5230 N   0  0  0  0  0  0  0  0  0  0  0  0
   -0.5670   -0.2513   -0.7637 N   0  0  0  0  0  0  0  0  0  0  0  0
    3.2277    2.4509    1.9834 N   0  0  0  0  0  0  0  0  0  0  0  0
   -6.1185   -4.1586   -3.6659 O   0  0  0  0  0  0  0  0  0  0  0  0
   -4.6935    0.5715   -0.3694 H   0  0  0  0  0  0  0  0  0  0  0  0
   -4.7102   -0.9470    0.4972 H   0  0  0  0  0  0  0  0  0  0  0  0
   -6.0077   -0.5571   -0.6067 H   0  0  0  0  0  0  0  0  0  0  0  0
   -2.3268   -1.7854   -1.9785 H   0  0  0  0  0  0  0  0  0  0  0  0
   -2.7209   -1.7723   -0.2759 H   0  0  0  0  0  0  0  0  0  0  0  0
   -2.4002    0.6062   -0.1931 H   0  0  0  0  0  0  0  0  0  0  0  0
   -2.0846    0.6435   -1.9115 H   0  0  0  0  0  0  0  0  0  0  0  0
   -0.2764   -0.8940   -1.4441 H   0  0  0  0  0  0  0  0  0  0  0  0
    0.3837    1.3358   -1.7644 H   0  0  0  0  0  0  0  0  0  0  0  0
    2.2771   -0.1121   -1.1454 H   0  0  0  0  0  0  0  0  0  0  0  0
    1.7865   -0.1080    0.5319 H   0  0  0  0  0  0  0  0  0  0  0  0
    2.7230    2.3074   -1.1111 H   0  0  0  0  0  0  0  0  0  0  0  0
    3.7725    0.6667    1.0370 H   0  0  0  0  0  0  0  0  0  0  0  0
    4.5096    2.1028    0.3674 H   0  0  0  0  0  0  0  0  0  0  0  0
    3.5412    0.9195    3.3522 H   0  0  0  0  0  0  0  0  0  0  0  0
    3.6280    2.5318    4.0207 H   0  0  0  0  0  0  0  0  0  0  0  0
    5.6036    3.9283    2.5277 H   0  0  0  0  0  0  0  0  0  0  0  0
    7.9920    3.7844    2.1520 H   0  0  0  0  0  0  0  0  0  0  0  0
    9.1447    1.6729    2.4673 H   0  0  0  0  0  0  0  0  0  0  0  0
    7.9034   -0.2961    3.1372 H   0  0  0  0  0  0  0  0  0  0  0  0
    5.5109   -0.1521    3.5136 H   0  0  0  0  0  0  0  0  0  0  0  0
    1.5243    1.2306    2.2756 H   0  0  0  0  0  0  0  0  0  0  0  0
    1.3093    2.8970    2.7560 H   0  0  0  0  0  0  0  0  0  0  0  0
    1.3828    3.6631    0.4091 H   0  0  0  0  0  0  0  0  0  0  0  0
   -0.6636    2.6381   -0.0574 H   0  0  0  0  0  0  0  0  0  0  0  0
   -0.3300    1.4459    1.1761 H   0  0  0  0  0  0  0  0  0  0  0  0
   -4.6327   -3.0555   -0.8946 H   0  0  0  0  0  0  0  0  0  0  0  0
   -6.4285   -1.6002   -2.8274 H   0  0  0  0  0  0  0  0  0  0  0  0
   -6.7898   -2.0301   -1.1725 H   0  0  0  0  0  0  0  0  0  0  0  0
   -7.8607   -3.5466   -2.7909 H   0  0  0  0  0  0  0  0  0  0  0  0
   -6.7453   -4.3785   -1.7335 H   0  0  0  0  0  0  0  0  0  0  0  0
   -4.6828   -5.0744   -2.5414 H   0  0  0  0  0  0  0  0  0  0  0  0
   -4.2557   -4.7884   -4.2117 H   0  0  0  0  0  0  0  0  0  0  0  0
   -3.0474   -3.3028   -2.6889 H   0  0  0  0  0  0  0  0  0  0  0  0
   -4.0792   -2.4159   -3.7858 H   0  0  0  0  0  0  0  0  0  0  0  0
  1 23  1  0  0  0  0
  1 27  1  0  0  0  0
  1 28  1  0  0  0  0
  1 29  1  0  0  0  0
  2 23  1  0  0  0  0
  2  3  1  0  0  0  0
  2 30  1  0  0  0  0
  2 31  1  0  0  0  0
  3 24  1  0  0  0  0
  3 32  1  0  0  0  0
  3 33  1  0  0  0  0
  4 24  1  0  0  0  0
  4  5  1  0  0  0  0
  4 17  1  0  0  0  0
  4 35  1  6  0  0  0
  5  6  1  0  0  0  0
  5 36  1  0  0  0  0
  5 37  1  0  0  0  0
  6  7  1  0  0  0  0
  6 16  1  0  0  0  0
  6 38  1  6  0  0  0
  7 25  1  0  0  0  0
  7 39  1  0  0  0  0
  7 40  1  0  0  0  0
  8 25  1  0  0  0  0
  8  9  1  0  0  0  0
  8 41  1  0  0  0  0
  8 42  1  0  0  0  0
  9 14  1  0  0  0  0
  9 10  2  0  0  0  0
 10 11  1  0  0  0  0
 10 43  1  0  0  0  0
 11 44  1  0  0  0  0
 11 12  2  0  0  0  0
 12 13  1  0  0  0  0
 12 45  1  0  0  0  0
 13 46  1  0  0  0  0
 13 14  2  0  0  0  0
 14 47  1  0  0  0  0
 15 25  1  0  0  0  0
 15 16  1  0  0  0  0
 15 48  1  0  0  0  0
 15 49  1  0  0  0  0
 16 17  1  0  0  0  0
 16 50  1  6  0  0  0
 17 51  1  0  0  0  0
 17 52  1  0  0  0  0
 18 23  1  0  0  0  0
 18 19  1  0  0  0  0
 18 22  1  0  0  0  0
 18 53  1  0  0  0  0
 19 20  1  0  0  0  0
 19 54  1  0  0  0  0
 19 55  1  0  0  0  0
 20 26  1  0  0  0  0
 20 56  1  0  0  0  0
 20 57  1  0  0  0  0
 21 26  1  0  0  0  0
 21 22  1  0  0  0  0
 21 58  1  0  0  0  0
 21 59  1  0  0  0  0
 22 60  1  0  0  0  0
 22 61  1  0  0  0  0
 24 34  1  0  0  0  0
M  END
>  <score>
0.45181894302368164

$$$$
Z4291397003
 OpenBabel08202115463D

 48 50  0  0  0  0  0  0  0  0999 V2000
   -6.3338   -4.7292   -2.9555 C   0  0  0  0  0  0  0  0  0  0  0  0
   -6.6527   -3.4430   -2.2108 C   0  0  0  0  0  0  0  0  0  0  0  0
   -7.3103   -2.4400   -3.1445 C   0  0  0  0  0  0  0  0  0  0  0  0
   -5.4548   -2.8721   -1.5691 C   0  0  0  0  0  0  0  0  0  0  0  0
   -3.7538   -1.7893   -1.0241 C   0  0  0  0  0  0  0  0  0  0  0  0
   -2.7817   -0.6746   -0.9940 C   0  0  0  0  0  0  0  0  0  0  0  0
   -0.4710   -0.1203   -0.1961 C   0  0  0  0  0  0  0  0  0  0  0  0
   -0.3586    1.0617   -0.9115 C   0  0  0  0  0  0  0  0  0  0  0  0
    0.7649    1.8534   -0.7662 C   0  0  0  0  0  0  0  0  0  0  0  0
    1.7771    1.4680    0.0989 C   0  0  0  0  0  0  0  0  0  0  0  0
    3.9489    1.8486    1.0418 C   0  0  1  0  0  0  0  0  0  0  0  0
    5.2329    2.5459    0.5884 C   0  0  0  0  0  0  0  0  0  0  0  0
    6.4259    2.3167    1.5244 C   0  0  0  0  0  0  0  0  0  0  0  0
    6.0723    2.7322    2.9595 C   0  0  0  0  0  0  0  0  0  0  0  0
    4.8456    1.9277    3.4113 C   0  0  0  0  0  0  0  0  0  0  0  0
    3.6142    2.1793    2.5269 C   0  0  1  0  0  0  0  0  0  0  0  0
    1.6652    0.2895    0.8122 C   0  0  0  0  0  0  0  0  0  0  0  0
    0.5384   -0.5044    0.6664 C   0  0  0  0  0  0  0  0  0  0  0  0
   -4.8817   -1.7353   -1.8187 N   0  0  0  0  0  0  0  0  0  0  0  0
   -1.6183   -0.9333   -0.3490 N   0  0  0  0  0  0  0  0  0  0  0  0
   -3.6309   -2.8849   -0.3231 N   0  0  0  0  0  0  0  0  0  0  0  0
   -2.9811    0.4155   -1.5044 O   0  0  0  0  0  0  0  0  0  0  0  0
    2.8481    2.2905    0.1995 O   0  0  0  0  0  0  0  0  0  0  0  0
    3.2295    3.5509    2.6309 O   0  0  0  0  0  0  0  0  0  0  0  0
   -4.7804   -3.6196   -0.6762 O   0  0  0  0  0  0  0  0  0  0  0  0
   -5.6441   -4.5221   -3.7468 H   0  0  0  0  0  0  0  0  0  0  0  0
   -7.2345   -5.1365   -3.3652 H   0  0  0  0  0  0  0  0  0  0  0  0
   -5.8985   -5.4343   -2.2786 H   0  0  0  0  0  0  0  0  0  0  0  0
   -7.3552   -3.6789   -1.4390 H   0  0  0  0  0  0  0  0  0  0  0  0
   -8.2051   -2.8634   -3.5506 H   0  0  0  0  0  0  0  0  0  0  0  0
   -6.6369   -2.1992   -3.9404 H   0  0  0  0  0  0  0  0  0  0  0  0
   -7.5519   -1.5512   -2.5999 H   0  0  0  0  0  0  0  0  0  0  0  0
   -1.5639   -1.8152    0.0749 H   0  0  0  0  0  0  0  0  0  0  0  0
   -1.1198    1.3528   -1.5576 H   0  0  0  0  0  0  0  0  0  0  0  0
    0.8510    2.7383   -1.3060 H   0  0  0  0  0  0  0  0  0  0  0  0
    4.0736    0.7907    0.9408 H   0  0  0  0  0  0  0  0  0  0  0  0
    5.0442    3.5977    0.5340 H   0  0  0  0  0  0  0  0  0  0  0  0
    5.4910    2.1787   -0.3830 H   0  0  0  0  0  0  0  0  0  0  0  0
    7.2569    2.8987    1.1843 H   0  0  0  0  0  0  0  0  0  0  0  0
    6.6879    1.2793    1.5129 H   0  0  0  0  0  0  0  0  0  0  0  0
    6.8978    2.5263    3.6085 H   0  0  0  0  0  0  0  0  0  0  0  0
    5.8482    3.7781    2.9875 H   0  0  0  0  0  0  0  0  0  0  0  0
    4.6068    2.2035    4.4172 H   0  0  0  0  0  0  0  0  0  0  0  0
    5.0867    0.8859    3.3742 H   0  0  0  0  0  0  0  0  0  0  0  0
    2.8087    1.5564    2.8557 H   0  0  0  0  0  0  0  0  0  0  0  0
    3.7245    4.0717    1.9943 H   0  0  0  0  0  0  0  0  0  0  0  0
    2.4265   -0.0016    1.4583 H   0  0  0  0  0  0  0  0  0  0  0  0
    0.4524   -1.3892    1.2062 H   0  0  0  0  0  0  0  0  0  0  0  0
  1  2  1  0  0  0  0
  1 26  1  0  0  0  0
  1 27  1  0  0  0  0
  1 28  1  0  0  0  0
  2  3  1  0  0  0  0
  2  4  1  0  0  0  0
  2 29  1  0  0  0  0
  3 30  1  0  0  0  0
  3 31  1  0  0  0  0
  3 32  1  0  0  0  0
  4 25  1  0  0  0  0
  4 19  2  0  0  0  0
  5 19  1  0  0  0  0
  5  6  1  0  0  0  0
  5 21  2  0  0  0  0
  6 20  1  0  0  0  0
  6 22  2  0  0  0  0
  7 20  1  0  0  0  0
  7 18  1  0  0  0  0
  7  8  2  0  0  0  0
  8  9  1  0  0  0  0
  8 34  1  0  0  0  0
  9 35  1  0  0  0  0
  9 10  2  0  0  0  0
 10 23  1  0  0  0  0
 10 17  1  0  0  0  0
 11 23  1  0  0  0  0
 11 12  1  0  0  0  0
 11 16  1  0  0  0  0
 11 36  1  6  0  0  0
 12 13  1  0  0  0  0
 12 37  1  0  0  0  0
 12 38  1  0  0  0  0
 13 14  1  0  0  0  0
 13 39  1  0  0  0  0
 13 40  1  0  0  0  0
 14 15  1  0  0  0  0
 14 41  1  0  0  0  0
 14 42  1  0  0  0  0
 15 16  1  0  0  0  0
 15 43  1  0  0  0  0
 15 44  1  0  0  0  0
 16 24  1  0  0  0  0
 16 45  1  1  0  0  0
 17 47  1  0  0  0  0
 17 18  2  0  0  0  0
 18 48  1  0  0  0  0
 20 33  1  0  0  0  0
 21 25  1  0  0  0  0
 24 46  1  0  0  0  0
M  END
>  <score>
0.45185631513595581

$$$$
PV-003115533183
 OpenBabel08202115463D

 61 61  0  0  0  0  0  0  0  0999 V2000
   -6.3180   -1.8017   -4.8496 C   0  0  0  0  0  0  0  0  0  0  0  0
   -6.2887   -2.4888   -3.4812 C   0  0  0  0  0  0  0  0  0  0  0  0
   -7.0701   -1.6602   -2.4588 C   0  0  0  0  0  0  0  0  0  0  0  0
   -4.8774   -2.7810   -2.9739 C   0  0  2  0  0  0  0  0  0  0  0  0
   -4.0582   -1.5531   -2.6910 C   0  0  0  0  0  0  0  0  0  0  0  0
   -1.9607   -0.4827   -2.2117 C   0  0  0  0  0  0  0  0  0  0  0  0
   -1.5795   -0.3584   -0.7396 C   0  0  0  0  0  0  0  0  0  0  0  0
   -0.9744    0.9882   -0.4577 C   0  0  0  0  0  0  0  0  0  0  0  0
    0.4831    2.3866    0.9208 C   0  0  0  0  0  0  0  0  0  0  0  0
    1.8410    2.3530    0.2574 C   0  0  0  0  0  0  0  0  0  0  0  0
    2.7254    1.2898    0.8871 C   0  0  0  0  0  0  0  0  0  0  0  0
    3.7140    0.4431    2.8941 C   0  0  0  0  0  0  0  0  0  0  0  0
    5.2087    0.7918    2.9594 C   0  0  0  0  0  0  0  0  0  0  0  0
    5.4467    2.0088    3.8614 C   0  0  0  0  0  0  0  0  0  0  0  0
    5.6725    1.1116    1.5335 C   0  0  0  0  0  0  0  0  0  0  0  0
    5.9701   -0.4025    3.4650 C   0  0  0  0  0  0  0  0  0  0  0  0
    1.5531    1.4643    2.9783 C   0  0  0  0  0  0  0  0  0  0  0  0
    0.6357    2.5406    2.4175 C   0  0  0  0  0  0  0  0  0  0  0  0
   -4.1713   -3.6576   -3.9660 N   0  0  0  0  0  0  0  0  0  0  0  0
   -2.7260   -1.6754   -2.5428 N   0  0  0  0  0  0  0  0  0  0  0  0
   -0.2220    1.1460    0.6350 N   0  0  0  0  0  0  0  0  0  0  0  0
    2.8575    1.5025    2.3254 N   0  0  0  0  0  0  0  0  0  0  0  0
   -4.5560   -0.4466   -2.5903 O   0  0  0  0  0  0  0  0  0  0  0  0
   -1.1446    1.9454   -1.1906 O   0  0  0  0  0  0  0  0  0  0  0  0
    5.6069   -1.6018    2.7939 O   0  0  0  0  0  0  0  0  0  0  0  0
   -5.7338   -2.3668   -5.5456 H   0  0  0  0  0  0  0  0  0  0  0  0
   -5.9124   -0.8154   -4.7620 H   0  0  0  0  0  0  0  0  0  0  0  0
   -7.3282   -1.7429   -5.1974 H   0  0  0  0  0  0  0  0  0  0  0  0
   -6.7925   -3.4272   -3.5841 H   0  0  0  0  0  0  0  0  0  0  0  0
   -7.1138   -2.1886   -1.5293 H   0  0  0  0  0  0  0  0  0  0  0  0
   -8.0630   -1.4922   -2.8202 H   0  0  0  0  0  0  0  0  0  0  0  0
   -6.5797   -0.7207   -2.3119 H   0  0  0  0  0  0  0  0  0  0  0  0
   -4.9701   -3.3284   -2.0592 H   0  0  0  0  0  0  0  0  0  0  0  0
   -3.3340   -3.9848   -3.5758 H   0  0  0  0  0  0  0  0  0  0  0  0
   -3.9745   -3.1415   -4.7756 H   0  0  0  0  0  0  0  0  0  0  0  0
   -2.2840   -2.5429   -2.6547 H   0  0  0  0  0  0  0  0  0  0  0  0
   -2.5453    0.3730   -2.4780 H   0  0  0  0  0  0  0  0  0  0  0  0
   -1.0600   -0.4937   -2.7893 H   0  0  0  0  0  0  0  0  0  0  0  0
   -0.8690   -1.1203   -0.4956 H   0  0  0  0  0  0  0  0  0  0  0  0
   -2.4562   -0.4818   -0.1386 H   0  0  0  0  0  0  0  0  0  0  0  0
   -0.1421    0.4005    1.2660 H   0  0  0  0  0  0  0  0  0  0  0  0
   -0.0776    3.2128    0.5361 H   0  0  0  0  0  0  0  0  0  0  0  0
    2.3089    3.3088    0.3686 H   0  0  0  0  0  0  0  0  0  0  0  0
    1.7173    2.1348   -0.7828 H   0  0  0  0  0  0  0  0  0  0  0  0
    3.6953    1.3305    0.4371 H   0  0  0  0  0  0  0  0  0  0  0  0
    2.2916    0.3270    0.7144 H   0  0  0  0  0  0  0  0  0  0  0  0
    3.6026   -0.4344    2.2920 H   0  0  0  0  0  0  0  0  0  0  0  0
    3.3757    0.2392    3.8885 H   0  0  0  0  0  0  0  0  0  0  0  0
    4.9923    1.8406    4.8154 H   0  0  0  0  0  0  0  0  0  0  0  0
    5.0153    2.8773    3.4093 H   0  0  0  0  0  0  0  0  0  0  0  0
    6.4986    2.1576    3.9889 H   0  0  0  0  0  0  0  0  0  0  0  0
    5.4925    2.1451    1.3227 H   0  0  0  0  0  0  0  0  0  0  0  0
    5.1297    0.5062    0.8380 H   0  0  0  0  0  0  0  0  0  0  0  0
    6.7189    0.9067    1.4448 H   0  0  0  0  0  0  0  0  0  0  0  0
    5.7706   -0.5197    4.5097 H   0  0  0  0  0  0  0  0  0  0  0  0
    7.0159   -0.2302    3.3183 H   0  0  0  0  0  0  0  0  0  0  0  0
    6.3256   -1.8786    2.2208 H   0  0  0  0  0  0  0  0  0  0  0  0
    1.1079    0.5049    2.8163 H   0  0  0  0  0  0  0  0  0  0  0  0
    1.6818    1.6256    4.0282 H   0  0  0  0  0  0  0  0  0  0  0  0
   -0.3261    2.4575    2.8789 H   0  0  0  0  0  0  0  0  0  0  0  0
    1.0521    3.5029    2.6307 H   0  0  0  0  0  0  0  0  0  0  0  0
  1  2  1  0  0  0  0
  1 26  1  0  0  0  0
  1 27  1  0  0  0  0
  1 28  1  0  0  0  0
  2  3  1  0  0  0  0
  2  4  1  0  0  0  0
  2 29  1  0  0  0  0
  3 30  1  0  0  0  0
  3 31  1  0  0  0  0
  3 32  1  0  0  0  0
  4 19  1  0  0  0  0
  4  5  1  0  0  0  0
  4 33  1  1  0  0  0
  5 20  1  0  0  0  0
  5 23  2  0  0  0  0
  6 20  1  0  0  0  0
  6  7  1  0  0  0  0
  6 37  1  0  0  0  0
  6 38  1  0  0  0  0
  7  8  1  0  0  0  0
  7 39  1  0  0  0  0
  7 40  1  0  0  0  0
  8 21  1  0  0  0  0
  8 24  2  0  0  0  0
  9 21  1  0  0  0  0
  9 10  1  0  0  0  0
  9 18  1  0  0  0  0
  9 42  1  0  0  0  0
 10 11  1  0  0  0  0
 10 43  1  0  0  0  0
 10 44  1  0  0  0  0
 11 22  1  0  0  0  0
 11 45  1  0  0  0  0
 11 46  1  0  0  0  0
 12 22  1  0  0  0  0
 12 13  1  0  0  0  0
 12 47  1  0  0  0  0
 12 48  1  0  0  0  0
 13 14  1  0  0  0  0
 13 15  1  0  0  0  0
 13 16  1  0  0  0  0
 14 49  1  0  0  0  0
 14 50  1  0  0  0  0
 14 51  1  0  0  0  0
 15 52  1  0  0  0  0
 15 53  1  0  0  0  0
 15 54  1  0  0  0  0
 16 25  1  0  0  0  0
 16 55  1  0  0  0  0
 16 56  1  0  0  0  0
 17 22  1  0  0  0  0
 17 18  1  0  0  0  0
 17 58  1  0  0  0  0
 17 59  1  0  0  0  0
 18 60  1  0  0  0  0
 18 61  1  0  0  0  0
 19 34  1  0  0  0  0
 19 35  1  0  0  0  0
 20 36  1  0  0  0  0
 21 41  1  0  0  0  0
 25 57  1  0  0  0  0
M  END
>  <score>
0.45196026563644409

$$$$
PV-003201602634
 OpenBabel08202115463D

 43 45  0  0  0  0  0  0  0  0999 V2000
    5.5755    0.9705    2.0838 C   0  0  0  0  0  0  0  0  0  0  0  0
    4.9374    1.8451    1.0169 C   0  0  0  0  0  0  0  0  0  0  0  0
    2.7714    2.0527    2.3909 C   0  0  0  0  0  0  0  0  0  0  0  0
    3.4226    2.0451    3.7303 C   0  0  0  0  0  0  0  0  0  0  0  0
    0.0861    2.1598    0.1471 C   0  0  0  0  0  0  0  0  0  0  0  0
   -0.4778    0.8187   -0.1733 C   0  0  0  0  0  0  0  0  0  0  0  0
   -1.7042   -0.7286   -0.8162 C   0  0  0  0  0  0  0  0  0  0  0  0
   -2.8606   -1.4511   -1.3894 C   0  0  0  0  0  0  0  0  0  0  0  0
   -3.0221   -2.8036   -1.1522 C   0  0  0  0  0  0  0  0  0  0  0  0
   -4.1150   -3.4472   -1.6990 C   0  0  0  0  0  0  0  0  0  0  0  0
   -5.0056   -2.7135   -2.4633 C   0  0  0  0  0  0  0  0  0  0  0  0
   -6.9817   -2.6367   -3.7829 C   0  0  0  0  0  0  0  0  0  0  0  0
   -3.7964   -0.7964   -2.1675 C   0  0  0  0  0  0  0  0  0  0  0  0
    1.3806   -0.6098    0.7791 C   0  0  0  0  0  0  0  0  0  0  0  0
    2.5761    1.9748    0.1866 C   0  0  0  0  0  0  0  0  0  0  0  0
    3.4775    1.9154    1.2198 N   0  0  0  0  0  0  0  0  0  0  0  0
    1.5045    2.1848    2.1699 N   0  0  0  0  0  0  0  0  0  0  0  0
    1.3944    2.1370    0.7935 N   0  0  0  0  0  0  0  0  0  0  0  0
   -1.6523    0.6131   -0.7402 N   0  0  0  0  0  0  0  0  0  0  0  0
   -4.8590   -1.4031   -2.7050 N   0  0  0  0  0  0  0  0  0  0  0  0
   -0.6501   -1.3674   -0.3436 N   0  0  0  0  0  0  0  0  0  0  0  0
    0.1334   -0.3373    0.0727 N   0  0  0  0  0  0  0  0  0  0  0  0
   -6.0598   -3.3830   -2.9731 O   0  0  0  0  0  0  0  0  0  0  0  0
    2.8007    1.8976   -1.0100 O   0  0  0  0  0  0  0  0  0  0  0  0
    5.1014    1.1526    3.0255 H   0  0  0  0  0  0  0  0  0  0  0  0
    6.6174    1.2024    2.1585 H   0  0  0  0  0  0  0  0  0  0  0  0
    5.4570   -0.0593    1.8183 H   0  0  0  0  0  0  0  0  0  0  0  0
    5.1402    1.4295    0.0519 H   0  0  0  0  0  0  0  0  0  0  0  0
    5.3499    2.8307    1.0752 H   0  0  0  0  0  0  0  0  0  0  0  0
    3.5810    1.0346    4.0447 H   0  0  0  0  0  0  0  0  0  0  0  0
    2.7916    2.5433    4.4363 H   0  0  0  0  0  0  0  0  0  0  0  0
    4.3632    2.5518    3.6721 H   0  0  0  0  0  0  0  0  0  0  0  0
    0.1762    2.7094   -0.7665 H   0  0  0  0  0  0  0  0  0  0  0  0
   -0.5983    2.6609    0.7994 H   0  0  0  0  0  0  0  0  0  0  0  0
   -2.3340   -3.3262   -0.5733 H   0  0  0  0  0  0  0  0  0  0  0  0
   -4.2659   -4.4638   -1.5395 H   0  0  0  0  0  0  0  0  0  0  0  0
   -7.9244   -2.7491   -3.2895 H   0  0  0  0  0  0  0  0  0  0  0  0
   -7.0238   -3.0372   -4.7742 H   0  0  0  0  0  0  0  0  0  0  0  0
   -6.6981   -1.6058   -3.8259 H   0  0  0  0  0  0  0  0  0  0  0  0
   -3.6671    0.2203   -2.3438 H   0  0  0  0  0  0  0  0  0  0  0  0
    1.2117   -0.5601    1.8345 H   0  0  0  0  0  0  0  0  0  0  0  0
    2.1141    0.1179    0.5008 H   0  0  0  0  0  0  0  0  0  0  0  0
    1.7308   -1.5871    0.5199 H   0  0  0  0  0  0  0  0  0  0  0  0
  1  2  1  0  0  0  0
  1 25  1  0  0  0  0
  1 26  1  0  0  0  0
  1 27  1  0  0  0  0
  2 16  1  0  0  0  0
  2 28  1  0  0  0  0
  2 29  1  0  0  0  0
  3 16  1  0  0  0  0
  3  4  1  0  0  0  0
  3 17  2  0  0  0  0
  4 30  1  0  0  0  0
  4 31  1  0  0  0  0
  4 32  1  0  0  0  0
  5 18  1  0  0  0  0
  5  6  1  0  0  0  0
  5 33  1  0  0  0  0
  5 34  1  0  0  0  0
  6 22  1  0  0  0  0
  6 19  2  0  0  0  0
  7 19  1  0  0  0  0
  7  8  1  0  0  0  0
  7 21  2  0  0  0  0
  8 13  1  0  0  0  0
  8  9  2  0  0  0  0
  9 10  1  0  0  0  0
  9 35  1  0  0  0  0
 10 36  1  0  0  0  0
 10 11  2  0  0  0  0
 11 23  1  0  0  0  0
 11 20  1  0  0  0  0
 12 23  1  0  0  0  0
 12 37  1  0  0  0  0
 12 38  1  0  0  0  0
 12 39  1  0  0  0  0
 13 40  1  0  0  0  0
 13 20  2  0  0  0  0
 14 22  1  0  0  0  0
 14 41  1  0  0  0  0
 14 42  1  0  0  0  0
 14 43  1  0  0  0  0
 15 16  1  0  0  0  0
 15 18  1  0  0  0  0
 15 24  2  0  0  0  0
 17 18  1  0  0  0  0
 21 22  1  0  0  0  0
M  END
>  <score>
0.4519684910774231

$$$$
PV-003594307324
 OpenBabel08202115463D

 54 56  0  0  0  0  0  0  0  0999 V2000
    3.4169    2.0916    4.1844 C   0  0  0  0  0  0  0  0  0  0  0  0
    4.2545    1.5269    3.0244 C   0  0  1  0  0  0  0  0  0  0  0  0
    3.4633    1.6186    1.7393 C   0  0  0  0  0  0  0  0  0  0  0  0
    1.4413    1.0879    0.4984 C   0  0  0  0  0  0  0  0  0  0  0  0
    0.1770    0.2786    0.6752 C   0  0  0  0  0  0  0  0  0  0  0  0
   -0.7447    0.3300   -0.5313 C   0  0  0  0  0  0  0  0  0  0  0  0
   -2.5278   -1.1087   -1.3861 C   0  0  0  0  0  0  0  0  0  0  0  0
   -3.6319   -2.0748   -1.0334 C   0  0  0  0  0  0  0  0  0  0  0  0
   -4.0605   -3.1134   -3.3314 C   0  0  0  0  0  0  0  0  0  0  0  0
   -5.2754   -3.1691   -4.2456 C   0  0  0  0  0  0  0  0  0  0  0  0
   -6.3833   -2.4320   -3.5170 C   0  0  0  0  0  0  0  0  0  0  0  0
   -5.7722   -1.9781   -2.2168 C   0  0  0  0  0  0  0  0  0  0  0  0
   -0.0310    0.2552   -1.8946 C   0  0  0  0  0  0  0  0  0  0  0  0
   -0.8965    1.3962   -2.4161 C   0  0  0  0  0  0  0  0  0  0  0  0
   -1.1980    1.7725   -0.9541 C   0  0  0  0  0  0  0  0  0  0  0  0
    5.5581    2.2749    2.8987 C   0  0  0  0  0  0  0  0  0  0  0  0
    6.5329    1.4083    3.6212 C   0  0  0  0  0  0  0  0  0  0  0  0
    4.6479    0.1059    3.3011 C   0  0  0  0  0  0  0  0  0  0  0  0
    3.8587    2.3119    0.8030 O   0  0  0  0  0  0  0  0  0  0  0  0
   -2.2996   -0.7972   -2.5581 O   0  0  0  0  0  0  0  0  0  0  0  0
   -6.3512   -1.3495   -1.3461 O   0  0  0  0  0  0  0  0  0  0  0  0
    6.0807    0.0569    3.3658 O   0  0  0  0  0  0  0  0  0  0  0  0
    2.3134    0.9184    1.6511 N   0  0  0  0  0  0  0  0  0  0  0  0
   -1.8288   -0.6247   -0.3555 N   0  0  0  0  0  0  0  0  0  0  0  0
   -4.5072   -2.3691   -2.1678 N   0  0  0  0  0  0  0  0  0  0  0  0
    3.8947    1.8632    5.1142 H   0  0  0  0  0  0  0  0  0  0  0  0
    2.4418    1.6515    4.1672 H   0  0  0  0  0  0  0  0  0  0  0  0
    3.3317    3.1530    4.0788 H   0  0  0  0  0  0  0  0  0  0  0  0
    2.0649    0.2945    2.3647 H   0  0  0  0  0  0  0  0  0  0  0  0
    1.9517    0.7576   -0.3821 H   0  0  0  0  0  0  0  0  0  0  0  0
    1.1871    2.1223    0.3970 H   0  0  0  0  0  0  0  0  0  0  0  0
   -0.3531    0.6585    1.5235 H   0  0  0  0  0  0  0  0  0  0  0  0
    0.4489   -0.7412    0.8513 H   0  0  0  0  0  0  0  0  0  0  0  0
   -2.0541   -0.9230    0.5505 H   0  0  0  0  0  0  0  0  0  0  0  0
   -4.2209   -1.6495   -0.2479 H   0  0  0  0  0  0  0  0  0  0  0  0
   -3.1914   -2.9891   -0.6946 H   0  0  0  0  0  0  0  0  0  0  0  0
   -3.7529   -4.0996   -3.0528 H   0  0  0  0  0  0  0  0  0  0  0  0
   -3.2491   -2.6088   -3.8130 H   0  0  0  0  0  0  0  0  0  0  0  0
   -5.5599   -4.1851   -4.4236 H   0  0  0  0  0  0  0  0  0  0  0  0
   -5.0609   -2.6896   -5.1778 H   0  0  0  0  0  0  0  0  0  0  0  0
   -6.7129   -1.5905   -4.0898 H   0  0  0  0  0  0  0  0  0  0  0  0
   -7.2105   -3.0856   -3.3340 H   0  0  0  0  0  0  0  0  0  0  0  0
    1.0134    0.4840   -1.8531 H   0  0  0  0  0  0  0  0  0  0  0  0
   -0.1735   -0.6711   -2.4110 H   0  0  0  0  0  0  0  0  0  0  0  0
   -1.7512    1.0831   -2.9785 H   0  0  0  0  0  0  0  0  0  0  0  0
   -0.3618    2.1432   -2.9648 H   0  0  0  0  0  0  0  0  0  0  0  0
   -0.5868    2.5599   -0.5650 H   0  0  0  0  0  0  0  0  0  0  0  0
   -2.2272    1.9883   -0.7563 H   0  0  0  0  0  0  0  0  0  0  0  0
    5.4908    3.2388    3.3583 H   0  0  0  0  0  0  0  0  0  0  0  0
    5.8359    2.3876    1.8716 H   0  0  0  0  0  0  0  0  0  0  0  0
    7.5221    1.5537    3.2400 H   0  0  0  0  0  0  0  0  0  0  0  0
    6.5199    1.6187    4.6702 H   0  0  0  0  0  0  0  0  0  0  0  0
    4.2963   -0.5295    2.5152 H   0  0  0  0  0  0  0  0  0  0  0  0
    4.2296   -0.2135    4.2327 H   0  0  0  0  0  0  0  0  0  0  0  0
  1  2  1  0  0  0  0
  1 26  1  0  0  0  0
  1 27  1  0  0  0  0
  1 28  1  0  0  0  0
  2  3  1  6  0  0  0
  2 16  1  0  0  0  0
  2 18  1  0  0  0  0
  3 23  1  0  0  0  0
  3 19  2  0  0  0  0
  4 23  1  0  0  0  0
  4  5  1  0  0  0  0
  4 30  1  0  0  0  0
  4 31  1  0  0  0  0
  5  6  1  0  0  0  0
  5 32  1  0  0  0  0
  5 33  1  0  0  0  0
  6 24  1  0  0  0  0
  6 13  1  0  0  0  0
  6 15  1  0  0  0  0
  7 24  1  0  0  0  0
  7  8  1  0  0  0  0
  7 20  2  0  0  0  0
  8 25  1  0  0  0  0
  8 35  1  0  0  0  0
  8 36  1  0  0  0  0
  9 25  1  0  0  0  0
  9 10  1  0  0  0  0
  9 37  1  0  0  0  0
  9 38  1  0  0  0  0
 10 11  1  0  0  0  0
 10 39  1  0  0  0  0
 10 40  1  0  0  0  0
 11 12  1  0  0  0  0
 11 41  1  0  0  0  0
 11 42  1  0  0  0  0
 12 25  1  0  0  0  0
 12 21  2  0  0  0  0
 13 14  1  0  0  0  0
 13 43  1  0  0  0  0
 13 44  1  0  0  0  0
 14 15  1  0  0  0  0
 14 45  1  0  0  0  0
 14 46  1  0  0  0  0
 15 47  1  0  0  0  0
 15 48  1  0  0  0  0
 16 17  1  0  0  0  0
 16 49  1  0  0  0  0
 16 50  1  0  0  0  0
 17 22  1  0  0  0  0
 17 51  1  0  0  0  0
 17 52  1  0  0  0  0
 18 22  1  0  0  0  0
 18 53  1  0  0  0  0
 18 54  1  0  0  0  0
 23 29  1  0  0  0  0
 24 34  1  0  0  0  0
M  END
>  <score>
0.45204287767410278

$$$$
Z3835703425
 OpenBabel08202115463D

 42 42  0  0  0  0  0  0  0  0999 V2000
    4.7914    0.2192    4.4160 C   0  0  0  0  0  0  0  0  0  0  0  0
    4.5896    0.9074    3.0758 C   0  0  0  0  0  0  0  0  0  0  0  0
    5.2160    2.2923    3.0731 C   0  0  0  0  0  0  0  0  0  0  0  0
    3.1292    0.9575    2.7006 C   0  0  0  0  0  0  0  0  0  0  0  0
    2.8237    1.5616    1.3396 C   0  0  0  0  0  0  0  0  0  0  0  0
    1.3514    1.6006    1.0288 C   0  0  0  0  0  0  0  0  0  0  0  0
    0.9474    2.1909   -0.2932 C   0  0  0  0  0  0  0  0  0  0  0  0
   -0.6546    0.6793   -1.0351 C   0  0  0  0  0  0  0  0  0  0  0  0
   -2.1209    0.4440   -1.2690 C   0  0  0  0  0  0  0  0  0  0  0  0
   -3.8080   -1.1267   -1.7342 C   0  0  0  0  0  0  0  0  0  0  0  0
   -4.0664   -2.5460   -2.2396 C   0  0  0  0  0  0  0  0  0  0  0  0
   -5.5123   -2.8050   -2.7102 C   0  0  0  0  0  0  0  0  0  0  0  0
   -5.0560   -2.5453   -4.1557 C   0  0  0  0  0  0  0  0  0  0  0  0
   -3.5998   -2.8073   -3.7115 C   0  0  0  0  0  0  0  0  0  0  0  0
    0.5289    1.1764    1.8068 O   0  0  0  0  0  0  0  0  0  0  0  0
   -0.4346    1.9386   -0.5917 O   0  0  0  0  0  0  0  0  0  0  0  0
    0.2379   -0.1012   -1.2009 O   0  0  0  0  0  0  0  0  0  0  0  0
   -2.4088   -0.8786   -1.6988 O   0  0  0  0  0  0  0  0  0  0  0  0
    4.3210    0.7934    5.1867 H   0  0  0  0  0  0  0  0  0  0  0  0
    5.8385    0.1379    4.6208 H   0  0  0  0  0  0  0  0  0  0  0  0
    4.3568   -0.7580    4.3839 H   0  0  0  0  0  0  0  0  0  0  0  0
    5.0936    0.3237    2.3341 H   0  0  0  0  0  0  0  0  0  0  0  0
    4.9216    2.8002    2.1785 H   0  0  0  0  0  0  0  0  0  0  0  0
    6.2820    2.2053    3.1033 H   0  0  0  0  0  0  0  0  0  0  0  0
    4.8781    2.8418    3.9268 H   0  0  0  0  0  0  0  0  0  0  0  0
    2.6185    1.5374    3.4407 H   0  0  0  0  0  0  0  0  0  0  0  0
    2.7523   -0.0439    2.7087 H   0  0  0  0  0  0  0  0  0  0  0  0
    3.3148    0.9774    0.5897 H   0  0  0  0  0  0  0  0  0  0  0  0
    3.2029    2.5620    1.3182 H   0  0  0  0  0  0  0  0  0  0  0  0
    1.5520    1.7598   -1.0637 H   0  0  0  0  0  0  0  0  0  0  0  0
    1.1074    3.2484   -0.2632 H   0  0  0  0  0  0  0  0  0  0  0  0
   -2.4605    1.1276   -2.0189 H   0  0  0  0  0  0  0  0  0  0  0  0
   -2.6457    0.6271   -0.3547 H   0  0  0  0  0  0  0  0  0  0  0  0
   -4.2773   -0.4244   -2.3911 H   0  0  0  0  0  0  0  0  0  0  0  0
   -4.2131   -1.0206   -0.7496 H   0  0  0  0  0  0  0  0  0  0  0  0
   -3.6986   -3.2522   -1.5248 H   0  0  0  0  0  0  0  0  0  0  0  0
   -5.8629   -3.7998   -2.5306 H   0  0  0  0  0  0  0  0  0  0  0  0
   -6.2289   -2.1015   -2.3409 H   0  0  0  0  0  0  0  0  0  0  0  0
   -5.2385   -1.5499   -4.5035 H   0  0  0  0  0  0  0  0  0  0  0  0
   -5.4322   -3.2477   -4.8698 H   0  0  0  0  0  0  0  0  0  0  0  0
   -2.8869   -2.1018   -4.0842 H   0  0  0  0  0  0  0  0  0  0  0  0
   -3.2496   -3.8011   -3.8976 H   0  0  0  0  0  0  0  0  0  0  0  0
  1  2  1  0  0  0  0
  1 19  1  0  0  0  0
  1 20  1  0  0  0  0
  1 21  1  0  0  0  0
  2  3  1  0  0  0  0
  2  4  1  0  0  0  0
  2 22  1  0  0  0  0
  3 23  1  0  0  0  0
  3 24  1  0  0  0  0
  3 25  1  0  0  0  0
  4  5  1  0  0  0  0
  4 26  1  0  0  0  0
  4 27  1  0  0  0  0
  5  6  1  0  0  0  0
  5 28  1  0  0  0  0
  5 29  1  0  0  0  0
  6  7  1  0  0  0  0
  6 15  2  0  0  0  0
  7 16  1  0  0  0  0
  7 30  1  0  0  0  0
  7 31  1  0  0  0  0
  8 16  1  0  0  0  0
  8  9  1  0  0  0  0
  8 17  2  0  0  0  0
  9 18  1  0  0  0  0
  9 32  1  0  0  0  0
  9 33  1  0  0  0  0
 10 18  1  0  0  0  0
 10 11  1  0  0  0  0
 10 34  1  0  0  0  0
 10 35  1  0  0  0  0
 11 12  1  0  0  0  0
 11 14  1  0  0  0  0
 11 36  1  0  0  0  0
 12 13  1  0  0  0  0
 12 37  1  0  0  0  0
 12 38  1  0  0  0  0
 13 14  1  0  0  0  0
 13 39  1  0  0  0  0
 13 40  1  0  0  0  0
 14 41  1  0  0  0  0
 14 42  1  0  0  0  0
M  END
>  <score>
0.45212239027023315

$$$$
PV-003640254767
 OpenBabel08202115463D

 46 48  0  0  0  0  0  0  0  0999 V2000
   -7.5665   -2.4184   -3.9845 C   0  0  0  0  0  0  0  0  0  0  0  0
   -5.5319   -2.2278   -2.6315 C   0  0  0  0  0  0  0  0  0  0  0  0
   -4.7001   -3.0319   -1.6625 C   0  0  0  0  0  0  0  0  0  0  0  0
   -3.4663   -2.2889   -1.2168 C   0  0  0  0  0  0  0  0  0  0  0  0
   -2.2543   -2.5085   -1.8438 C   0  0  0  0  0  0  0  0  0  0  0  0
   -1.1456   -1.7543   -1.4923 C   0  0  0  0  0  0  0  0  0  0  0  0
   -1.2508   -0.7864   -0.5113 C   0  0  0  0  0  0  0  0  0  0  0  0
   -0.0250   -0.0225   -0.1825 C   0  0  0  0  0  0  0  0  0  0  0  0
    0.1774    1.2202   -0.7527 C   0  0  0  0  0  0  0  0  0  0  0  0
    1.3186    1.9454   -0.4474 C   0  0  0  0  0  0  0  0  0  0  0  0
    2.2567    1.4234    0.4231 C   0  0  0  0  0  0  0  0  0  0  0  0
    4.3241    1.7500    1.6042 C   0  0  0  0  0  0  0  0  0  0  0  0
    4.0850    2.3535    2.9815 C   0  0  0  0  0  0  0  0  0  0  0  0
    5.4210    2.3096    3.7104 C   0  0  0  0  0  0  0  0  0  0  0  0
    6.4878    2.1429    2.6262 C   0  0  0  0  0  0  0  0  0  0  0  0
    5.7608    2.2887    1.2508 C   0  0  0  0  0  0  0  0  0  0  0  0
    2.0539    0.1771    0.9950 C   0  0  0  0  0  0  0  0  0  0  0  0
    0.9160   -0.5458    0.6905 C   0  0  0  0  0  0  0  0  0  0  0  0
   -2.4665   -0.5663    0.1174 C   0  0  0  0  0  0  0  0  0  0  0  0
   -3.5719   -1.3182   -0.2328 C   0  0  0  0  0  0  0  0  0  0  0  0
   -6.4559   -2.9965   -3.2194 O   0  0  0  0  0  0  0  0  0  0  0  0
   -5.3974   -1.0596   -2.8564 O   0  0  0  0  0  0  0  0  0  0  0  0
    3.3309    2.2187    0.6408 O   0  0  0  0  0  0  0  0  0  0  0  0
   -2.4959    0.4019    1.0652 O   0  0  0  0  0  0  0  0  0  0  0  0
   -8.0895   -1.7109   -3.3756 H   0  0  0  0  0  0  0  0  0  0  0  0
   -8.2373   -3.1969   -4.2824 H   0  0  0  0  0  0  0  0  0  0  0  0
   -7.1825   -1.9259   -4.8533 H   0  0  0  0  0  0  0  0  0  0  0  0
   -4.4006   -3.9421   -2.1387 H   0  0  0  0  0  0  0  0  0  0  0  0
   -5.2954   -3.2578   -0.8026 H   0  0  0  0  0  0  0  0  0  0  0  0
   -2.1741   -3.2395   -2.5792 H   0  0  0  0  0  0  0  0  0  0  0  0
   -0.2345   -1.9167   -1.9669 H   0  0  0  0  0  0  0  0  0  0  0  0
   -0.5266    1.6111   -1.4108 H   0  0  0  0  0  0  0  0  0  0  0  0
    1.4689    2.8822   -0.8734 H   0  0  0  0  0  0  0  0  0  0  0  0
    4.3090    0.6808    1.6412 H   0  0  0  0  0  0  0  0  0  0  0  0
    3.7478    3.3647    2.8884 H   0  0  0  0  0  0  0  0  0  0  0  0
    3.3545    1.7810    3.5140 H   0  0  0  0  0  0  0  0  0  0  0  0
    5.5795    3.2194    4.2509 H   0  0  0  0  0  0  0  0  0  0  0  0
    5.4476    1.4822    4.3882 H   0  0  0  0  0  0  0  0  0  0  0  0
    6.9419    1.1770    2.7020 H   0  0  0  0  0  0  0  0  0  0  0  0
    7.2378    2.8992    2.7282 H   0  0  0  0  0  0  0  0  0  0  0  0
    5.7288    3.3092    0.9308 H   0  0  0  0  0  0  0  0  0  0  0  0
    6.2280    1.6920    0.4954 H   0  0  0  0  0  0  0  0  0  0  0  0
    2.7579   -0.2138    1.6531 H   0  0  0  0  0  0  0  0  0  0  0  0
    0.7658   -1.4826    1.1165 H   0  0  0  0  0  0  0  0  0  0  0  0
   -2.7495    1.2361    0.6634 H   0  0  0  0  0  0  0  0  0  0  0  0
   -4.4830   -1.1558    0.2417 H   0  0  0  0  0  0  0  0  0  0  0  0
  1 21  1  0  0  0  0
  1 25  1  0  0  0  0
  1 26  1  0  0  0  0
  1 27  1  0  0  0  0
  2 21  1  0  0  0  0
  2  3  1  0  0  0  0
  2 22  2  0  0  0  0
  3  4  1  0  0  0  0
  3 28  1  0  0  0  0
  3 29  1  0  0  0  0
  4 20  1  0  0  0  0
  4  5  2  0  0  0  0
  5  6  1  0  0  0  0
  5 30  1  0  0  0  0
  6 31  1  0  0  0  0
  6  7  2  0  0  0  0
  7  8  1  0  0  0  0
  7 19  1  0  0  0  0
  8 18  1  0  0  0  0
  8  9  2  0  0  0  0
  9 10  1  0  0  0  0
  9 32  1  0  0  0  0
 10 33  1  0  0  0  0
 10 11  2  0  0  0  0
 11 23  1  0  0  0  0
 11 17  1  0  0  0  0
 12 23  1  0  0  0  0
 12 13  1  0  0  0  0
 12 16  1  0  0  0  0
 12 34  1  0  0  0  0
 13 14  1  0  0  0  0
 13 35  1  0  0  0  0
 13 36  1  0  0  0  0
 14 15  1  0  0  0  0
 14 37  1  0  0  0  0
 14 38  1  0  0  0  0
 15 16  1  0  0  0  0
 15 39  1  0  0  0  0
 15 40  1  0  0  0  0
 16 41  1  0  0  0  0
 16 42  1  0  0  0  0
 17 43  1  0  0  0  0
 17 18  2  0  0  0  0
 18 44  1  0  0  0  0
 19 24  1  0  0  0  0
 19 20  2  0  0  0  0
 20 46  1  0  0  0  0
 24 45  1  0  0  0  0
M  END
>  <score>
0.45212924480438232

$$$$
Z4562841335
 OpenBabel08202115463D

 38 40  0  0  0  0  0  0  0  0999 V2000
   -6.2786   -2.1935   -2.9041 C   0  0  0  0  0  0  0  0  0  0  0  0
   -4.9380   -1.9257   -2.2864 C   0  0  0  0  0  0  0  0  0  0  0  0
   -4.0756   -2.8237   -1.7371 C   0  0  0  0  0  0  0  0  0  0  0  0
   -2.8174   -2.4545   -1.1814 C   0  0  0  0  0  0  0  0  0  0  0  0
   -1.7300    0.8143   -1.1914 C   0  0  0  0  0  0  0  0  0  0  0  0
    0.7821    0.9816   -0.1573 C   0  0  0  0  0  0  0  0  0  0  0  0
    1.9962    1.8262    0.2940 C   0  0  0  0  0  0  0  0  0  0  0  0
    3.1050    1.0515    1.0170 C   0  0  0  0  0  0  0  0  0  0  0  0
    2.5386    0.4280    2.2974 C   0  0  0  0  0  0  0  0  0  0  0  0
    3.6493   -0.1667    3.1325 C   0  0  0  0  0  0  0  0  0  0  0  0
    5.2552    1.3222    2.2798 C   0  0  0  0  0  0  0  0  0  0  0  0
    4.2493    2.0103    1.3704 C   0  0  0  0  0  0  0  0  0  0  0  0
   -3.4319   -0.1683   -1.8246 C   0  0  0  0  0  0  0  0  0  0  0  0
   -2.0826   -3.2256   -0.5865 O   0  0  0  0  0  0  0  0  0  0  0  0
    4.6300    0.8126    3.4575 O   0  0  0  0  0  0  0  0  0  0  0  0
   -2.5599   -1.0786   -1.3054 N   0  0  0  0  0  0  0  0  0  0  0  0
   -1.4307   -0.4297   -0.8850 N   0  0  0  0  0  0  0  0  0  0  0  0
   -2.9429    1.0474   -1.7649 N   0  0  0  0  0  0  0  0  0  0  0  0
   -4.6141   -0.5972   -2.3164 N   0  0  0  0  0  0  0  0  0  0  0  0
   -0.5267    2.0305   -0.8234 S   0  0  0  0  0  0  0  0  0  0  0  0
    1.5566    2.7920    1.1157 F   0  0  0  0  0  0  0  0  0  0  0  0
    2.5325    2.4091   -0.7898 F   0  0  0  0  0  0  0  0  0  0  0  0
   -6.9944   -1.6639   -2.3107 H   0  0  0  0  0  0  0  0  0  0  0  0
   -6.4897   -3.2424   -2.8903 H   0  0  0  0  0  0  0  0  0  0  0  0
   -6.2988   -1.8383   -3.9132 H   0  0  0  0  0  0  0  0  0  0  0  0
   -4.3482   -3.8272   -1.7225 H   0  0  0  0  0  0  0  0  0  0  0  0
    1.0970    0.2932   -0.9135 H   0  0  0  0  0  0  0  0  0  0  0  0
    0.4017    0.4396    0.6832 H   0  0  0  0  0  0  0  0  0  0  0  0
    3.4747    0.2771    0.3780 H   0  0  0  0  0  0  0  0  0  0  0  0
    2.0374    1.1839    2.8651 H   0  0  0  0  0  0  0  0  0  0  0  0
    1.8435   -0.3423    2.0361 H   0  0  0  0  0  0  0  0  0  0  0  0
    4.1148   -0.9573    2.5819 H   0  0  0  0  0  0  0  0  0  0  0  0
    3.2339   -0.5582    4.0375 H   0  0  0  0  0  0  0  0  0  0  0  0
    6.0078    2.0279    2.5631 H   0  0  0  0  0  0  0  0  0  0  0  0
    5.7077    0.5116    1.7477 H   0  0  0  0  0  0  0  0  0  0  0  0
    3.8494    2.8669    1.8716 H   0  0  0  0  0  0  0  0  0  0  0  0
    4.7405    2.3193    0.4715 H   0  0  0  0  0  0  0  0  0  0  0  0
   -5.2449    0.0485   -2.6979 H   0  0  0  0  0  0  0  0  0  0  0  0
  1  2  1  0  0  0  0
  1 23  1  0  0  0  0
  1 24  1  0  0  0  0
  1 25  1  0  0  0  0
  2 19  1  0  0  0  0
  2  3  2  0  0  0  0
  3  4  1  0  0  0  0
  3 26  1  0  0  0  0
  4 16  1  0  0  0  0
  4 14  2  0  0  0  0
  5 20  1  0  0  0  0
  5 18  1  0  0  0  0
  5 17  2  0  0  0  0
  6 20  1  0  0  0  0
  6  7  1  0  0  0  0
  6 27  1  0  0  0  0
  6 28  1  0  0  0  0
  7 21  1  0  0  0  0
  7 22  1  0  0  0  0
  7  8  1  0  0  0  0
  8  9  1  0  0  0  0
  8 12  1  0  0  0  0
  8 29  1  0  0  0  0
  9 10  1  0  0  0  0
  9 30  1  0  0  0  0
  9 31  1  0  0  0  0
 10 15  1  0  0  0  0
 10 32  1  0  0  0  0
 10 33  1  0  0  0  0
 11 15  1  0  0  0  0
 11 12  1  0  0  0  0
 11 34  1  0  0  0  0
 11 35  1  0  0  0  0
 12 36  1  0  0  0  0
 12 37  1  0  0  0  0
 13 16  1  0  0  0  0
 13 19  1  0  0  0  0
 13 18  2  0  0  0  0
 16 17  1  0  0  0  0
 19 38  1  0  0  0  0
M  END
>  <score>
0.45213979482650757

$$$$
PV-003732400728
 OpenBabel08202115463D

 52 54  0  0  0  0  0  0  0  0999 V2000
    5.3302    3.6012    3.8641 C   0  0  0  0  0  0  0  0  0  0  0  0
    4.3572    2.6647    3.1400 C   0  0  0  0  0  0  0  0  0  0  0  0
    4.3996    1.2584    3.7468 C   0  0  0  0  0  0  0  0  0  0  0  0
    5.9667    2.6727    1.3098 C   0  0  0  0  0  0  0  0  0  0  0  0
    3.7691    1.6573    0.9913 C   0  0  0  0  0  0  0  0  0  0  0  0
    2.2797    1.8821    1.0845 C   0  0  0  0  0  0  0  0  0  0  0  0
    1.4625    0.8229    0.3564 C   0  0  0  0  0  0  0  0  0  0  0  0
   -0.0088    1.1542    0.5138 C   0  0  0  0  0  0  0  0  0  0  0  0
   -0.5537   -1.0530   -0.6355 C   0  0  0  0  0  0  0  0  0  0  0  0
   -2.0685   -1.1868   -0.3696 C   0  0  2  0  0  0  0  0  0  0  0  0
   -2.9746   -1.7663   -1.5134 C   0  0  1  0  0  0  0  0  0  0  0  0
   -4.3528   -3.5238   -2.6213 C   0  0  0  0  0  0  0  0  0  0  0  0
   -5.1866   -3.7864   -3.8360 C   0  0  1  0  0  0  0  0  0  0  0  0
   -6.5448   -4.4009   -3.4462 C   0  0  0  0  0  0  0  0  0  0  0  0
   -6.8755   -2.4140   -4.5118 C   0  0  0  0  0  0  0  0  0  0  0  0
   -2.7403   -0.2585   -1.4024 C   0  0  1  0  0  0  0  0  0  0  0  0
   -2.3545    0.3185   -0.0234 C   0  0  0  0  0  0  0  0  0  0  0  0
    4.5444    2.7132    1.6771 N   0  0  0  0  0  0  0  0  0  0  0  0
   -0.8710    0.2466    0.0107 N   0  0  0  0  0  0  0  0  0  0  0  0
   -3.7815   -2.3037   -2.6101 N   0  0  0  0  0  0  0  0  0  0  0  0
   -0.3743    2.1900    1.0681 O   0  0  0  0  0  0  0  0  0  0  0  0
   -4.2225   -4.3662   -1.7341 O   0  0  0  0  0  0  0  0  0  0  0  0
   -7.5195   -3.4325   -3.9321 O   0  0  0  0  0  0  0  0  0  0  0  0
   -7.4378   -1.4787   -4.9967 O   0  0  0  0  0  0  0  0  0  0  0  0
   -5.5443   -2.5388   -4.4989 O   0  0  0  0  0  0  0  0  0  0  0  0
    5.5739    4.4253    3.2267 H   0  0  0  0  0  0  0  0  0  0  0  0
    6.2229    3.0657    4.1113 H   0  0  0  0  0  0  0  0  0  0  0  0
    4.8731    3.9665    4.7599 H   0  0  0  0  0  0  0  0  0  0  0  0
    3.3769    3.0441    3.3397 H   0  0  0  0  0  0  0  0  0  0  0  0
    3.6827    0.6352    3.2543 H   0  0  0  0  0  0  0  0  0  0  0  0
    4.1673    1.3132    4.7898 H   0  0  0  0  0  0  0  0  0  0  0  0
    5.3782    0.8448    3.6200 H   0  0  0  0  0  0  0  0  0  0  0  0
    6.2963    3.6566    1.0486 H   0  0  0  0  0  0  0  0  0  0  0  0
    6.1005    2.0183    0.4739 H   0  0  0  0  0  0  0  0  0  0  0  0
    6.5390    2.3138    2.1396 H   0  0  0  0  0  0  0  0  0  0  0  0
    4.0026    0.7142    1.4396 H   0  0  0  0  0  0  0  0  0  0  0  0
    4.0498    1.6412   -0.0411 H   0  0  0  0  0  0  0  0  0  0  0  0
    2.0535    2.8372    0.6587 H   0  0  0  0  0  0  0  0  0  0  0  0
    1.9997    1.8761    2.1172 H   0  0  0  0  0  0  0  0  0  0  0  0
    1.6623   -0.1397    0.7788 H   0  0  0  0  0  0  0  0  0  0  0  0
    1.7217    0.8183   -0.6817 H   0  0  0  0  0  0  0  0  0  0  0  0
    0.4528   -1.0583   -0.9988 H   0  0  0  0  0  0  0  0  0  0  0  0
   -0.6891   -1.8604    0.0534 H   0  0  0  0  0  0  0  0  0  0  0  0
   -2.5203   -1.8571    0.4173 H   0  0  0  0  0  0  0  0  0  0  0  0
   -3.1372   -2.3496   -0.6313 H   0  0  0  0  0  0  0  0  0  0  0  0
   -3.9164   -1.7331   -3.3953 H   0  0  0  0  0  0  0  0  0  0  0  0
   -4.6538   -4.4323   -4.5022 H   0  0  0  0  0  0  0  0  0  0  0  0
   -6.6198   -4.5167   -2.3851 H   0  0  0  0  0  0  0  0  0  0  0  0
   -6.6830   -5.3504   -3.9197 H   0  0  0  0  0  0  0  0  0  0  0  0
   -3.1692    0.3933   -2.1358 H   0  0  0  0  0  0  0  0  0  0  0  0
   -2.7793   -0.2686    0.7639 H   0  0  0  0  0  0  0  0  0  0  0  0
   -2.6857    1.3318    0.0681 H   0  0  0  0  0  0  0  0  0  0  0  0
  1  2  1  0  0  0  0
  1 26  1  0  0  0  0
  1 27  1  0  0  0  0
  1 28  1  0  0  0  0
  2  3  1  0  0  0  0
  2 18  1  0  0  0  0
  2 29  1  0  0  0  0
  3 30  1  0  0  0  0
  3 31  1  0  0  0  0
  3 32  1  0  0  0  0
  4 18  1  0  0  0  0
  4 33  1  0  0  0  0
  4 34  1  0  0  0  0
  4 35  1  0  0  0  0
  5 18  1  0  0  0  0
  5  6  1  0  0  0  0
  5 36  1  0  0  0  0
  5 37  1  0  0  0  0
  6  7  1  0  0  0  0
  6 38  1  0  0  0  0
  6 39  1  0  0  0  0
  7  8  1  0  0  0  0
  7 40  1  0  0  0  0
  7 41  1  0  0  0  0
  8 19  1  0  0  0  0
  8 21  2  0  0  0  0
  9 19  1  0  0  0  0
  9 10  1  0  0  0  0
  9 42  1  0  0  0  0
  9 43  1  0  0  0  0
 10 11  1  0  0  0  0
 10 16  1  0  0  0  0
 10 44  1  1  0  0  0
 11 20  1  0  0  0  0
 11 16  1  0  0  0  0
 11 45  1  1  0  0  0
 12 20  1  0  0  0  0
 12 13  1  0  0  0  0
 12 22  2  0  0  0  0
 13 14  1  0  0  0  0
 13 25  1  0  0  0  0
 13 47  1  6  0  0  0
 14 23  1  0  0  0  0
 14 48  1  0  0  0  0
 14 49  1  0  0  0  0
 15 23  1  0  0  0  0
 15 25  1  0  0  0  0
 15 24  2  0  0  0  0
 16 17  1  0  0  0  0
 16 50  1  6  0  0  0
 17 19  1  0  0  0  0
 17 51  1  0  0  0  0
 17 52  1  0  0  0  0
 20 46  1  0  0  0  0
M  END
>  <score>
0.45214325189590454

$$$$
Z4272644235
 OpenBabel08202115463D

 57 59  0  0  0  0  0  0  0  0999 V2000
    0.9773    1.9788    1.4079 C   0  0  0  0  0  0  0  0  0  0  0  0
   -0.4422    0.9524   -0.3281 C   0  0  0  0  0  0  0  0  0  0  0  0
   -0.7556   -0.3878   -0.4546 C   0  0  0  0  0  0  0  0  0  0  0  0
   -2.0207   -0.7668   -0.8760 C   0  0  0  0  0  0  0  0  0  0  0  0
   -2.9669    0.1954   -1.1746 C   0  0  0  0  0  0  0  0  0  0  0  0
   -4.3538   -0.2331   -1.6430 C   0  0  0  0  0  0  0  0  0  0  0  0
   -5.6327   -2.0173   -2.7167 C   0  0  0  0  0  0  0  0  0  0  0  0
   -5.3317   -3.3709   -3.3479 C   0  0  0  0  0  0  0  0  0  0  0  0
   -6.2571   -1.0763   -3.7393 C   0  0  0  0  0  0  0  0  0  0  0  0
   -6.5857   -2.1850   -1.5293 C   0  0  0  0  0  0  0  0  0  0  0  0
   -2.6523    1.5395   -1.0477 C   0  0  0  0  0  0  0  0  0  0  0  0
   -1.3910    1.9175   -0.6276 C   0  0  0  0  0  0  0  0  0  0  0  0
    2.5469   -0.6215    1.1366 C   0  0  0  0  0  0  0  0  0  0  0  0
    3.7778   -0.0244    1.8311 C   0  0  1  0  0  0  0  0  0  0  0  0
    5.1780   -0.4460    1.2829 C   0  0  0  0  0  0  0  0  0  0  0  0
    6.1431    0.6111    1.8808 C   0  0  0  0  0  0  0  0  0  0  0  0
    5.2149    1.5682    2.6893 C   0  0  1  0  0  0  0  0  0  0  0  0
    5.7834    2.9491    2.9587 C   0  0  0  0  0  0  0  0  0  0  0  0
    3.9207    1.5413    1.8027 C   0  0  0  0  0  0  0  0  0  0  0  0
    3.9034   -0.2475    3.3713 C   0  0  0  0  0  0  0  0  0  0  0  0
    0.8569    1.2809    0.1093 N   0  0  0  0  0  0  0  0  0  0  0  0
   -4.3272   -1.4113   -2.3013 N   0  0  0  0  0  0  0  0  0  0  0  0
   -5.3458    0.4574   -1.4172 O   0  0  0  0  0  0  0  0  0  0  0  0
    3.1873    1.1348   -0.6789 O   0  0  0  0  0  0  0  0  0  0  0  0
    1.5734   -0.6277   -1.2773 O   0  0  0  0  0  0  0  0  0  0  0  0
    4.7913    0.7854    3.8395 O   0  0  0  0  0  0  0  0  0  0  0  0
    2.0875    0.2963   -0.3158 S   0  0  0  0  0  0  0  0  0  0  0  0
    0.1388    2.6298    1.5426 H   0  0  0  0  0  0  0  0  0  0  0  0
    1.8801    2.5530    1.4216 H   0  0  0  0  0  0  0  0  0  0  0  0
    1.0000    1.2586    2.1989 H   0  0  0  0  0  0  0  0  0  0  0  0
   -0.0424   -1.1118   -0.2338 H   0  0  0  0  0  0  0  0  0  0  0  0
   -2.2579   -1.7753   -0.9673 H   0  0  0  0  0  0  0  0  0  0  0  0
   -3.4781   -1.8575   -2.5018 H   0  0  0  0  0  0  0  0  0  0  0  0
   -5.3947   -3.2903   -4.4129 H   0  0  0  0  0  0  0  0  0  0  0  0
   -6.0433   -4.0914   -3.0023 H   0  0  0  0  0  0  0  0  0  0  0  0
   -4.3458   -3.6816   -3.0716 H   0  0  0  0  0  0  0  0  0  0  0  0
   -5.6876   -1.1041   -4.6447 H   0  0  0  0  0  0  0  0  0  0  0  0
   -6.2605   -0.0793   -3.3508 H   0  0  0  0  0  0  0  0  0  0  0  0
   -7.2618   -1.3846   -3.9405 H   0  0  0  0  0  0  0  0  0  0  0  0
   -6.0189   -2.3530   -0.6374 H   0  0  0  0  0  0  0  0  0  0  0  0
   -7.2302   -3.0209   -1.7048 H   0  0  0  0  0  0  0  0  0  0  0  0
   -7.1736   -1.2982   -1.4162 H   0  0  0  0  0  0  0  0  0  0  0  0
   -3.3655    2.2635   -1.2685 H   0  0  0  0  0  0  0  0  0  0  0  0
   -1.1538    2.9260   -0.5363 H   0  0  0  0  0  0  0  0  0  0  0  0
    2.7662   -1.6296    0.8525 H   0  0  0  0  0  0  0  0  0  0  0  0
    1.7262   -0.6144    1.8230 H   0  0  0  0  0  0  0  0  0  0  0  0
    5.4369   -1.4296    1.6152 H   0  0  0  0  0  0  0  0  0  0  0  0
    5.1937   -0.4147    0.2134 H   0  0  0  0  0  0  0  0  0  0  0  0
    6.8613    0.1473    2.5242 H   0  0  0  0  0  0  0  0  0  0  0  0
    6.6508    1.1431    1.1035 H   0  0  0  0  0  0  0  0  0  0  0  0
    6.0103    3.4294    2.0299 H   0  0  0  0  0  0  0  0  0  0  0  0
    6.6766    2.8594    3.5411 H   0  0  0  0  0  0  0  0  0  0  0  0
    5.0643    3.5322    3.4952 H   0  0  0  0  0  0  0  0  0  0  0  0
    3.0926    2.0453    2.2558 H   0  0  0  0  0  0  0  0  0  0  0  0
    4.0797    1.9292    0.8183 H   0  0  0  0  0  0  0  0  0  0  0  0
    2.9461   -0.1586    3.8410 H   0  0  0  0  0  0  0  0  0  0  0  0
    4.3136   -1.2142    3.5766 H   0  0  0  0  0  0  0  0  0  0  0  0
  1 21  1  0  0  0  0
  1 28  1  0  0  0  0
  1 29  1  0  0  0  0
  1 30  1  0  0  0  0
  2 21  1  0  0  0  0
  2 12  1  0  0  0  0
  2  3  2  0  0  0  0
  3  4  1  0  0  0  0
  3 31  1  0  0  0  0
  4 32  1  0  0  0  0
  4  5  2  0  0  0  0
  5  6  1  0  0  0  0
  5 11  1  0  0  0  0
  6 22  1  0  0  0  0
  6 23  2  0  0  0  0
  7 22  1  0  0  0  0
  7  8  1  0  0  0  0
  7  9  1  0  0  0  0
  7 10  1  0  0  0  0
  8 34  1  0  0  0  0
  8 35  1  0  0  0  0
  8 36  1  0  0  0  0
  9 37  1  0  0  0  0
  9 38  1  0  0  0  0
  9 39  1  0  0  0  0
 10 40  1  0  0  0  0
 10 41  1  0  0  0  0
 10 42  1  0  0  0  0
 11 43  1  0  0  0  0
 11 12  2  0  0  0  0
 12 44  1  0  0  0  0
 13 45  1  0  0  0  0
 13 46  1  0  0  0  0
 14 13  1  6  0  0  0
 14 15  1  0  0  0  0
 14 19  1  0  0  0  0
 14 20  1  0  0  0  0
 15 16  1  0  0  0  0
 15 47  1  0  0  0  0
 15 48  1  0  0  0  0
 16 17  1  0  0  0  0
 16 49  1  0  0  0  0
 16 50  1  0  0  0  0
 17 18  1  1  0  0  0
 17 19  1  0  0  0  0
 17 26  1  0  0  0  0
 18 51  1  0  0  0  0
 18 52  1  0  0  0  0
 18 53  1  0  0  0  0
 19 54  1  0  0  0  0
 19 55  1  0  0  0  0
 20 26  1  0  0  0  0
 20 56  1  0  0  0  0
 20 57  1  0  0  0  0
 22 33  1  0  0  0  0
 27 21  1  0  0  0  0
 27 13  1  0  0  0  0
 27 24  2  0  0  0  0
 27 25  2  0  0  0  0
M  END
>  <score>
0.45214980840682983

$$$$
Z1311745603
 OpenBabel08202115463D

 50 52  0  0  0  0  0  0  0  0999 V2000
    4.1849    3.6562    0.6448 C   0  0  0  0  0  0  0  0  0  0  0  0
    5.2773    1.6900    1.7164 C   0  0  0  0  0  0  0  0  0  0  0  0
    5.0710    1.7356    3.1884 C   0  0  0  0  0  0  0  0  0  0  0  0
    5.1578    2.2508    5.1981 C   0  0  0  0  0  0  0  0  0  0  0  0
    3.8484   -0.4536    3.4477 C   0  0  0  0  0  0  0  0  0  0  0  0
    3.0630    1.4863    0.7076 C   0  0  0  0  0  0  0  0  0  0  0  0
    0.8184    1.5321   -0.3832 C   0  0  0  0  0  0  0  0  0  0  0  0
   -0.1981    2.3290   -0.8863 C   0  0  0  0  0  0  0  0  0  0  0  0
   -1.3792    1.7534   -1.3150 C   0  0  0  0  0  0  0  0  0  0  0  0
   -1.5454    0.3789   -1.2470 C   0  0  0  0  0  0  0  0  0  0  0  0
   -2.8133   -0.2278   -1.7146 C   0  0  0  0  0  0  0  0  0  0  0  0
   -4.2582   -1.6845   -2.1061 C   0  0  0  0  0  0  0  0  0  0  0  0
   -5.1118   -2.9288   -2.3798 C   0  0  0  0  0  0  0  0  0  0  0  0
   -5.2694   -3.1813   -3.8822 C   0  0  0  0  0  0  0  0  0  0  0  0
   -6.5014   -2.7181   -1.7749 C   0  0  0  0  0  0  0  0  0  0  0  0
   -4.4713   -4.1726   -1.7549 C   0  0  0  0  0  0  0  0  0  0  0  0
   -0.5317   -0.4156   -0.7453 C   0  0  0  0  0  0  0  0  0  0  0  0
    0.6530    0.1616   -0.3153 C   0  0  0  0  0  0  0  0  0  0  0  0
    4.1500    2.2374    0.9743 N   0  0  0  0  0  0  0  0  0  0  0  0
    5.4734    2.7158    3.9762 N   0  0  0  0  0  0  0  0  0  0  0  0
    4.5876    1.0605    5.2252 N   0  0  0  0  0  0  0  0  0  0  0  0
    4.5453    0.7444    3.9037 N   0  0  0  0  0  0  0  0  0  0  0  0
    2.0045    2.1115    0.0530 N   0  0  0  0  0  0  0  0  0  0  0  0
   -3.7698    0.4630   -2.2756 N   0  0  0  0  0  0  0  0  0  0  0  0
   -3.0735   -1.5780   -1.5883 N   0  0  0  0  0  0  0  0  0  0  0  0
    3.0104    0.2926    1.0315 O   0  0  0  0  0  0  0  0  0  0  0  0
   -4.7471   -0.5133   -2.5534 O   0  0  0  0  0  0  0  0  0  0  0  0
    3.2105    4.0779    0.7777 H   0  0  0  0  0  0  0  0  0  0  0  0
    4.4902    3.7783   -0.3734 H   0  0  0  0  0  0  0  0  0  0  0  0
    4.8797    4.1545    1.2882 H   0  0  0  0  0  0  0  0  0  0  0  0
    6.1528    2.2560    1.4758 H   0  0  0  0  0  0  0  0  0  0  0  0
    5.4186    0.6711    1.4220 H   0  0  0  0  0  0  0  0  0  0  0  0
    5.3503    2.7932    6.0643 H   0  0  0  0  0  0  0  0  0  0  0  0
    4.1063   -0.6505    2.4281 H   0  0  0  0  0  0  0  0  0  0  0  0
    2.7919   -0.3027    3.5254 H   0  0  0  0  0  0  0  0  0  0  0  0
    4.1359   -1.2861    4.0553 H   0  0  0  0  0  0  0  0  0  0  0  0
    2.1076    3.0706   -0.1200 H   0  0  0  0  0  0  0  0  0  0  0  0
   -0.0720    3.3598   -0.9412 H   0  0  0  0  0  0  0  0  0  0  0  0
   -2.1435    2.3516   -1.6888 H   0  0  0  0  0  0  0  0  0  0  0  0
   -5.9567   -2.4719   -4.2935 H   0  0  0  0  0  0  0  0  0  0  0  0
   -5.6425   -4.1717   -4.0399 H   0  0  0  0  0  0  0  0  0  0  0  0
   -4.3191   -3.0769   -4.3628 H   0  0  0  0  0  0  0  0  0  0  0  0
   -6.4060   -2.4735   -0.7376 H   0  0  0  0  0  0  0  0  0  0  0  0
   -7.0749   -3.6155   -1.8783 H   0  0  0  0  0  0  0  0  0  0  0  0
   -6.9949   -1.9179   -2.2859 H   0  0  0  0  0  0  0  0  0  0  0  0
   -3.5003   -4.3251   -2.1777 H   0  0  0  0  0  0  0  0  0  0  0  0
   -5.0844   -5.0269   -1.9529 H   0  0  0  0  0  0  0  0  0  0  0  0
   -4.3819   -4.0345   -0.6976 H   0  0  0  0  0  0  0  0  0  0  0  0
   -0.6579   -1.4464   -0.6905 H   0  0  0  0  0  0  0  0  0  0  0  0
    1.4173   -0.4366    0.0585 H   0  0  0  0  0  0  0  0  0  0  0  0
  1 19  1  0  0  0  0
  1 28  1  0  0  0  0
  1 29  1  0  0  0  0
  1 30  1  0  0  0  0
  2 19  1  0  0  0  0
  2  3  1  0  0  0  0
  2 31  1  0  0  0  0
  2 32  1  0  0  0  0
  3 22  1  0  0  0  0
  3 20  2  0  0  0  0
  4 20  1  0  0  0  0
  4 33  1  0  0  0  0
  4 21  2  0  0  0  0
  5 22  1  0  0  0  0
  5 34  1  0  0  0  0
  5 35  1  0  0  0  0
  5 36  1  0  0  0  0
  6 19  1  0  0  0  0
  6 23  1  0  0  0  0
  6 26  2  0  0  0  0
  7 23  1  0  0  0  0
  7 18  1  0  0  0  0
  7  8  2  0  0  0  0
  8  9  1  0  0  0  0
  8 38  1  0  0  0  0
  9 39  1  0  0  0  0
  9 10  2  0  0  0  0
 10 11  1  0  0  0  0
 10 17  1  0  0  0  0
 11 25  1  0  0  0  0
 11 24  2  0  0  0  0
 12 27  1  0  0  0  0
 12 13  1  0  0  0  0
 12 25  2  0  0  0  0
 13 14  1  0  0  0  0
 13 15  1  0  0  0  0
 13 16  1  0  0  0  0
 14 40  1  0  0  0  0
 14 41  1  0  0  0  0
 14 42  1  0  0  0  0
 15 43  1  0  0  0  0
 15 44  1  0  0  0  0
 15 45  1  0  0  0  0
 16 46  1  0  0  0  0
 16 47  1  0  0  0  0
 16 48  1  0  0  0  0
 17 49  1  0  0  0  0
 17 18  2  0  0  0  0
 18 50  1  0  0  0  0
 21 22  1  0  0  0  0
 23 37  1  0  0  0  0
 24 27  1  0  0  0  0
M  END
>  <score>
0.45216631889343262

$$$$
PV-003977542053
 OpenBabel08202115463D

 52 53  0  0  0  0  0  0  0  0999 V2000
   -6.8603   -4.5784   -2.2618 C   0  0  0  0  0  0  0  0  0  0  0  0
   -3.9300   -2.0822   -2.0136 C   0  0  0  0  0  0  0  0  0  0  0  0
   -2.5232   -1.5372   -2.0212 C   0  0  0  0  0  0  0  0  0  0  0  0
   -0.7489   -0.4912   -0.7030 C   0  0  0  0  0  0  0  0  0  0  0  0
   -0.8438    1.0371   -0.7206 C   0  0  1  0  0  0  0  0  0  0  0  0
   -1.0244    1.7775    0.5675 C   0  0  0  0  0  0  0  0  0  0  0  0
    0.2409    1.9387   -0.2211 C   0  0  1  0  0  0  0  0  0  0  0  0
    2.5447    2.1664    0.5772 C   0  0  0  0  0  0  0  0  0  0  0  0
    3.7799    1.4064    1.0046 C   0  0  1  0  0  0  0  0  0  0  0  0
    5.0363    2.1107    0.4883 C   0  0  0  0  0  0  0  0  0  0  0  0
    5.9335    2.3119    1.7019 C   0  0  0  0  0  0  0  0  0  0  0  0
    5.4445    1.3396    2.7666 C   0  0  0  0  0  0  0  0  0  0  0  0
    3.8838    1.3824    2.5635 C   0  0  0  0  0  0  0  0  0  0  0  0
    3.2040    0.1342    3.1545 C   0  0  0  0  0  0  0  0  0  0  0  0
    3.2698    2.6445    3.1876 C   0  0  0  0  0  0  0  0  0  0  0  0
   -6.7925   -3.1524   -2.6086 N   0  0  0  0  0  0  0  0  0  0  0  0
   -4.3125   -2.8079   -3.2182 N   0  0  0  0  0  0  0  0  0  0  0  0
   -2.0717   -1.0799   -0.8499 N   0  0  0  0  0  0  0  0  0  0  0  0
    1.4863    1.3588    0.2691 N   0  0  0  0  0  0  0  0  0  0  0  0
   -5.7920   -2.6310   -3.8410 S   0  0  0  0  0  0  0  0  0  0  0  0
   -5.8720   -1.2678   -4.1387 O   0  0  0  0  0  0  0  0  0  0  0  0
   -5.9781   -3.6549   -4.7885 O   0  0  0  0  0  0  0  0  0  0  0  0
   -1.8496   -1.5231   -3.0505 O   0  0  0  0  0  0  0  0  0  0  0  0
    2.4734    3.3794    0.5060 O   0  0  0  0  0  0  0  0  0  0  0  0
   -7.7411   -4.9987   -2.7005 H   0  0  0  0  0  0  0  0  0  0  0  0
   -6.9010   -4.6881   -1.1982 H   0  0  0  0  0  0  0  0  0  0  0  0
   -5.9951   -5.0818   -2.6399 H   0  0  0  0  0  0  0  0  0  0  0  0
   -7.3367   -2.5039   -2.1148 H   0  0  0  0  0  0  0  0  0  0  0  0
   -3.6690   -3.4060   -3.6523 H   0  0  0  0  0  0  0  0  0  0  0  0
   -4.0243   -2.7473   -1.1808 H   0  0  0  0  0  0  0  0  0  0  0  0
   -4.6042   -1.2602   -1.8925 H   0  0  0  0  0  0  0  0  0  0  0  0
   -2.6514   -1.1430   -0.0622 H   0  0  0  0  0  0  0  0  0  0  0  0
   -0.1264   -0.8156   -1.5105 H   0  0  0  0  0  0  0  0  0  0  0  0
   -0.3227   -0.8078    0.2260 H   0  0  0  0  0  0  0  0  0  0  0  0
   -1.4059    1.4290   -1.5424 H   0  0  0  0  0  0  0  0  0  0  0  0
   -1.0119    1.2463    1.4962 H   0  0  0  0  0  0  0  0  0  0  0  0
   -1.7242    2.5847    0.6270 H   0  0  0  0  0  0  0  0  0  0  0  0
    0.3340    2.8685   -0.7425 H   0  0  0  0  0  0  0  0  0  0  0  0
    1.5641    0.3880    0.3778 H   0  0  0  0  0  0  0  0  0  0  0  0
    3.7346    0.4077    0.6232 H   0  0  0  0  0  0  0  0  0  0  0  0
    4.7812    3.0549    0.0541 H   0  0  0  0  0  0  0  0  0  0  0  0
    5.5293    1.5034   -0.2418 H   0  0  0  0  0  0  0  0  0  0  0  0
    6.9513    2.1008    1.4481 H   0  0  0  0  0  0  0  0  0  0  0  0
    5.8553    3.3184    2.0566 H   0  0  0  0  0  0  0  0  0  0  0  0
    5.7172    1.6690    3.7475 H   0  0  0  0  0  0  0  0  0  0  0  0
    5.8305    0.3556    2.6001 H   0  0  0  0  0  0  0  0  0  0  0  0
    3.7271   -0.7427    2.8344 H   0  0  0  0  0  0  0  0  0  0  0  0
    2.1897    0.0872    2.8170 H   0  0  0  0  0  0  0  0  0  0  0  0
    3.2227    0.1903    4.2229 H   0  0  0  0  0  0  0  0  0  0  0  0
    2.2041    2.5957    3.1049 H   0  0  0  0  0  0  0  0  0  0  0  0
    3.6293    3.5100    2.6713 H   0  0  0  0  0  0  0  0  0  0  0  0
    3.5461    2.7039    4.2196 H   0  0  0  0  0  0  0  0  0  0  0  0
  1 16  1  0  0  0  0
  1 25  1  0  0  0  0
  1 26  1  0  0  0  0
  1 27  1  0  0  0  0
  2 17  1  0  0  0  0
  2  3  1  0  0  0  0
  2 30  1  0  0  0  0
  2 31  1  0  0  0  0
  3 18  1  0  0  0  0
  3 23  2  0  0  0  0
  4 18  1  0  0  0  0
  4  5  1  0  0  0  0
  4 33  1  0  0  0  0
  4 34  1  0  0  0  0
  5  6  1  0  0  0  0
  5  7  1  0  0  0  0
  5 35  1  6  0  0  0
  6  7  1  0  0  0  0
  6 36  1  0  0  0  0
  6 37  1  0  0  0  0
  7 19  1  0  0  0  0
  7 38  1  6  0  0  0
  8 19  1  0  0  0  0
  8  9  1  0  0  0  0
  8 24  2  0  0  0  0
  9 10  1  0  0  0  0
  9 13  1  0  0  0  0
  9 40  1  6  0  0  0
 10 11  1  0  0  0  0
 10 41  1  0  0  0  0
 10 42  1  0  0  0  0
 11 12  1  0  0  0  0
 11 43  1  0  0  0  0
 11 44  1  0  0  0  0
 12 13  1  0  0  0  0
 12 45  1  0  0  0  0
 12 46  1  0  0  0  0
 13 14  1  0  0  0  0
 13 15  1  0  0  0  0
 14 47  1  0  0  0  0
 14 48  1  0  0  0  0
 14 49  1  0  0  0  0
 15 50  1  0  0  0  0
 15 51  1  0  0  0  0
 15 52  1  0  0  0  0
 16 28  1  0  0  0  0
 17 29  1  0  0  0  0
 18 32  1  0  0  0  0
 19 39  1  0  0  0  0
 20 16  1  0  0  0  0
 20 17  1  0  0  0  0
 20 21  2  0  0  0  0
 20 22  2  0  0  0  0
M  END
>  <score>
0.45216894149780273

$$$$
Z3838769651
 OpenBabel08202115463D

 53 55  0  0  0  0  0  0  0  0999 V2000
    0.6134    2.5322    2.6206 C   0  0  0  0  0  0  0  0  0  0  0  0
    2.0058    2.5481    2.0604 C   0  0  0  0  0  0  0  0  0  0  0  0
    5.4817    2.4573    2.5897 C   0  0  0  0  0  0  0  0  0  0  0  0
    5.9344    1.0336    2.7419 C   0  0  0  0  0  0  0  0  0  0  0  0
    3.7604    2.5624    0.7232 C   0  0  0  0  0  0  0  0  0  0  0  0
    2.3858    2.5541    0.7114 C   0  0  0  0  0  0  0  0  0  0  0  0
    1.4341    2.5517   -0.4615 C   0  0  0  0  0  0  0  0  0  0  0  0
    0.5541    0.2500   -0.7532 C   0  0  1  0  0  0  0  0  0  0  0  0
    1.3112   -0.5125    0.3262 C   0  0  0  0  0  0  0  0  0  0  0  0
    0.5573   -0.5985    1.6263 C   0  0  0  0  0  0  0  0  0  0  0  0
   -0.7464   -0.4315   -1.1239 C   0  0  0  0  0  0  0  0  0  0  0  0
   -0.8623   -1.8013   -0.9810 C   0  0  0  0  0  0  0  0  0  0  0  0
   -2.0176   -2.4462   -1.3944 C   0  0  0  0  0  0  0  0  0  0  0  0
   -3.0515   -1.7198   -1.9545 C   0  0  0  0  0  0  0  0  0  0  0  0
   -4.2793   -2.4198   -2.3982 C   0  0  0  0  0  0  0  0  0  0  0  0
   -4.4538   -3.7889   -2.3244 C   0  0  0  0  0  0  0  0  0  0  0  0
   -5.6395   -4.3610   -2.7582 C   0  0  0  0  0  0  0  0  0  0  0  0
   -6.6453   -3.5627   -3.2695 C   0  0  0  0  0  0  0  0  0  0  0  0
   -6.4705   -2.1896   -3.3436 C   0  0  0  0  0  0  0  0  0  0  0  0
   -5.2882   -1.6194   -2.9111 C   0  0  0  0  0  0  0  0  0  0  0  0
   -2.9354   -0.3460   -2.0979 C   0  0  0  0  0  0  0  0  0  0  0  0
   -1.7835    0.2968   -1.6856 C   0  0  0  0  0  0  0  0  0  0  0  0
    3.0745    2.5585    2.8625 N   0  0  0  0  0  0  0  0  0  0  0  0
    4.1413    2.5607    2.0228 N   0  0  0  0  0  0  0  0  0  0  0  0
    0.2844    1.6401   -0.3056 N   0  0  0  0  0  0  0  0  0  0  0  0
    5.1323    0.3778    3.7152 O   0  0  0  0  0  0  0  0  0  0  0  0
   -0.5661   -0.1668    1.7686 O   0  0  0  0  0  0  0  0  0  0  0  0
    1.2485   -1.1859    2.5705 O   0  0  0  0  0  0  0  0  0  0  0  0
    0.1238    1.6246    2.3351 H   0  0  0  0  0  0  0  0  0  0  0  0
    0.0657    3.3680    2.2381 H   0  0  0  0  0  0  0  0  0  0  0  0
    0.6579    2.5926    3.6880 H   0  0  0  0  0  0  0  0  0  0  0  0
    5.4833    2.9224    3.5533 H   0  0  0  0  0  0  0  0  0  0  0  0
    6.1667    2.9678    1.9455 H   0  0  0  0  0  0  0  0  0  0  0  0
    6.9575    1.0172    3.0547 H   0  0  0  0  0  0  0  0  0  0  0  0
    5.8396    0.5280    1.8037 H   0  0  0  0  0  0  0  0  0  0  0  0
    5.6670    0.1725    4.4856 H   0  0  0  0  0  0  0  0  0  0  0  0
    4.3874    2.5686   -0.1065 H   0  0  0  0  0  0  0  0  0  0  0  0
    1.9786    2.2585   -1.3347 H   0  0  0  0  0  0  0  0  0  0  0  0
    1.0591    3.5454   -0.5912 H   0  0  0  0  0  0  0  0  0  0  0  0
   -0.4633    1.9938   -0.8312 H   0  0  0  0  0  0  0  0  0  0  0  0
    1.1698    0.2871   -1.6275 H   0  0  0  0  0  0  0  0  0  0  0  0
    2.2422   -0.0161    0.5046 H   0  0  0  0  0  0  0  0  0  0  0  0
    1.4977   -1.5057   -0.0256 H   0  0  0  0  0  0  0  0  0  0  0  0
    0.9730   -0.8490    3.4262 H   0  0  0  0  0  0  0  0  0  0  0  0
   -0.0826   -2.3483   -0.5632 H   0  0  0  0  0  0  0  0  0  0  0  0
   -2.1064   -3.4764   -1.2832 H   0  0  0  0  0  0  0  0  0  0  0  0
   -3.6953   -4.3898   -1.9434 H   0  0  0  0  0  0  0  0  0  0  0  0
   -5.7723   -5.3908   -2.6989 H   0  0  0  0  0  0  0  0  0  0  0  0
   -7.5334   -3.9923   -3.5987 H   0  0  0  0  0  0  0  0  0  0  0  0
   -7.2289   -1.5886   -3.7247 H   0  0  0  0  0  0  0  0  0  0  0  0
   -5.1555   -0.5896   -2.9704 H   0  0  0  0  0  0  0  0  0  0  0  0
   -3.7151    0.2010   -2.5157 H   0  0  0  0  0  0  0  0  0  0  0  0
   -1.6947    1.3270   -1.7969 H   0  0  0  0  0  0  0  0  0  0  0  0
  1  2  1  0  0  0  0
  1 29  1  0  0  0  0
  1 30  1  0  0  0  0
  1 31  1  0  0  0  0
  2  6  1  0  0  0  0
  2 23  2  0  0  0  0
  3 24  1  0  0  0  0
  3  4  1  0  0  0  0
  3 32  1  0  0  0  0
  3 33  1  0  0  0  0
  4 26  1  0  0  0  0
  4 34  1  0  0  0  0
  4 35  1  0  0  0  0
  5 24  1  0  0  0  0
  5 37  1  0  0  0  0
  5  6  2  0  0  0  0
  6  7  1  0  0  0  0
  7 25  1  0  0  0  0
  7 38  1  0  0  0  0
  7 39  1  0  0  0  0
  8 25  1  0  0  0  0
  8  9  1  0  0  0  0
  8 11  1  0  0  0  0
  8 41  1  6  0  0  0
  9 10  1  0  0  0  0
  9 42  1  0  0  0  0
  9 43  1  0  0  0  0
 10 28  1  0  0  0  0
 10 27  2  0  0  0  0
 11 22  1  0  0  0  0
 11 12  2  0  0  0  0
 12 13  1  0  0  0  0
 12 45  1  0  0  0  0
 13 46  1  0  0  0  0
 13 14  2  0  0  0  0
 14 15  1  0  0  0  0
 14 21  1  0  0  0  0
 15 20  1  0  0  0  0
 15 16  2  0  0  0  0
 16 17  1  0  0  0  0
 16 47  1  0  0  0  0
 17 48  1  0  0  0  0
 17 18  2  0  0  0  0
 18 19  1  0  0  0  0
 18 49  1  0  0  0  0
 19 50  1  0  0  0  0
 19 20  2  0  0  0  0
 20 51  1  0  0  0  0
 21 52  1  0  0  0  0
 21 22  2  0  0  0  0
 22 53  1  0  0  0  0
 23 24  1  0  0  0  0
 25 40  1  0  0  0  0
 26 36  1  0  0  0  0
 28 44  1  0  0  0  0
M  END
>  <score>
0.45216906070709229

$$$$
Z3782011636
 OpenBabel08202115463D

 50 50  0  0  0  0  0  0  0  0999 V2000
    0.4163   -0.9560    1.3553 C   0  0  0  0  0  0  0  0  0  0  0  0
   -0.2499   -0.2392    0.1922 C   0  0  1  0  0  0  0  0  0  0  0  0
    0.7524    0.4974   -0.6791 C   0  0  0  0  0  0  0  0  0  0  0  0
   -0.4026    2.6049   -0.5674 C   0  0  0  0  0  0  0  0  0  0  0  0
    1.2397    2.0474    1.1068 C   0  0  0  0  0  0  0  0  0  0  0  0
    2.6837    1.6656    1.3695 C   0  0  0  0  0  0  0  0  0  0  0  0
    3.1179    1.9045    2.8044 C   0  0  0  0  0  0  0  0  0  0  0  0
    5.3743    2.2348    2.0384 C   0  0  0  0  0  0  0  0  0  0  0  0
    4.9250    1.9547    4.3910 C   0  0  0  0  0  0  0  0  0  0  0  0
   -2.1975   -0.8210   -1.2178 C   0  0  0  0  0  0  0  0  0  0  0  0
   -3.9335   -1.6849   -2.7078 C   0  0  0  0  0  0  0  0  0  0  0  0
   -4.2353   -2.8439   -3.6253 C   0  0  1  0  0  0  0  0  0  0  0  0
   -4.3933   -4.1511   -2.8281 C   0  0  0  0  0  0  0  0  0  0  0  0
   -6.3103   -3.7254   -3.9778 C   0  0  0  0  0  0  0  0  0  0  0  0
    0.8720    1.9213   -0.3197 N   0  0  0  0  0  0  0  0  0  0  0  0
    4.5246    1.5537    3.0308 N   0  0  0  0  0  0  0  0  0  0  0  0
   -1.0261   -1.1768   -0.6055 N   0  0  0  0  0  0  0  0  0  0  0  0
   -2.7123   -1.8279   -1.9294 N   0  0  0  0  0  0  0  0  0  0  0  0
   -2.7133    0.2809   -1.1278 O   0  0  0  0  0  0  0  0  0  0  0  0
   -5.7111   -4.6142   -3.1857 O   0  0  0  0  0  0  0  0  0  0  0  0
   -7.4241   -3.8501   -4.3903 O   0  0  0  0  0  0  0  0  0  0  0  0
   -5.5290   -2.6807   -4.2593 O   0  0  0  0  0  0  0  0  0  0  0  0
   -0.3237   -1.4807    1.9226 H   0  0  0  0  0  0  0  0  0  0  0  0
    0.9048   -0.2398    1.9826 H   0  0  0  0  0  0  0  0  0  0  0  0
    1.1370   -1.6519    0.9794 H   0  0  0  0  0  0  0  0  0  0  0  0
   -0.9208    0.4875    0.6005 H   0  0  0  0  0  0  0  0  0  0  0  0
    0.4378    0.4262   -1.6993 H   0  0  0  0  0  0  0  0  0  0  0  0
    1.7102    0.0337   -0.5675 H   0  0  0  0  0  0  0  0  0  0  0  0
   -0.8019    2.2863   -1.5076 H   0  0  0  0  0  0  0  0  0  0  0  0
   -0.2416    3.6625   -0.5885 H   0  0  0  0  0  0  0  0  0  0  0  0
   -1.0936    2.3643    0.2133 H   0  0  0  0  0  0  0  0  0  0  0  0
    0.6051    1.4067    1.6827 H   0  0  0  0  0  0  0  0  0  0  0  0
    1.0925    3.0628    1.4107 H   0  0  0  0  0  0  0  0  0  0  0  0
    3.3106    2.2450    0.7244 H   0  0  0  0  0  0  0  0  0  0  0  0
    2.8056    0.6261    1.1468 H   0  0  0  0  0  0  0  0  0  0  0  0
    2.5075    1.3096    3.4512 H   0  0  0  0  0  0  0  0  0  0  0  0
    2.9808    2.9400    3.0365 H   0  0  0  0  0  0  0  0  0  0  0  0
    6.4039    2.0990    2.2965 H   0  0  0  0  0  0  0  0  0  0  0  0
    5.1441    3.2797    2.0293 H   0  0  0  0  0  0  0  0  0  0  0  0
    5.1923    1.8205    1.0689 H   0  0  0  0  0  0  0  0  0  0  0  0
    4.3216    1.4381    5.1079 H   0  0  0  0  0  0  0  0  0  0  0  0
    4.7901    3.0099    4.5057 H   0  0  0  0  0  0  0  0  0  0  0  0
    5.9543    1.7072    4.5470 H   0  0  0  0  0  0  0  0  0  0  0  0
   -0.6988   -2.0948   -0.7078 H   0  0  0  0  0  0  0  0  0  0  0  0
   -2.2514   -2.6927   -1.9270 H   0  0  0  0  0  0  0  0  0  0  0  0
   -3.8466   -0.8012   -3.3048 H   0  0  0  0  0  0  0  0  0  0  0  0
   -4.7519   -1.5770   -2.0271 H   0  0  0  0  0  0  0  0  0  0  0  0
   -3.4589   -2.9323   -4.3562 H   0  0  0  0  0  0  0  0  0  0  0  0
   -4.3264   -3.9665   -1.7763 H   0  0  0  0  0  0  0  0  0  0  0  0
   -3.6481   -4.8640   -3.1137 H   0  0  0  0  0  0  0  0  0  0  0  0
  1  2  1  0  0  0  0
  1 23  1  0  0  0  0
  1 24  1  0  0  0  0
  1 25  1  0  0  0  0
  2  3  1  0  0  0  0
  2 17  1  0  0  0  0
  2 26  1  1  0  0  0
  3 15  1  0  0  0  0
  3 27  1  0  0  0  0
  3 28  1  0  0  0  0
  4 15  1  0  0  0  0
  4 29  1  0  0  0  0
  4 30  1  0  0  0  0
  4 31  1  0  0  0  0
  5 15  1  0  0  0  0
  5  6  1  0  0  0  0
  5 32  1  0  0  0  0
  5 33  1  0  0  0  0
  6  7  1  0  0  0  0
  6 34  1  0  0  0  0
  6 35  1  0  0  0  0
  7 16  1  0  0  0  0
  7 36  1  0  0  0  0
  7 37  1  0  0  0  0
  8 16  1  0  0  0  0
  8 38  1  0  0  0  0
  8 39  1  0  0  0  0
  8 40  1  0  0  0  0
  9 16  1  0  0  0  0
  9 41  1  0  0  0  0
  9 42  1  0  0  0  0
  9 43  1  0  0  0  0
 10 17  1  0  0  0  0
 10 18  1  0  0  0  0
 10 19  2  0  0  0  0
 11 18  1  0  0  0  0
 11 12  1  0  0  0  0
 11 46  1  0  0  0  0
 11 47  1  0  0  0  0
 12 13  1  0  0  0  0
 12 22  1  0  0  0  0
 12 48  1  6  0  0  0
 13 20  1  0  0  0  0
 13 49  1  0  0  0  0
 13 50  1  0  0  0  0
 14 20  1  0  0  0  0
 14 22  1  0  0  0  0
 14 21  2  0  0  0  0
 17 44  1  0  0  0  0
 18 45  1  0  0  0  0
M  END
>  <score>
0.4522215723991394

$$$$
PV-004134071526
 OpenBabel08202115463D

 49 51  0  0  0  0  0  0  0  0999 V2000
    6.1046   -0.2884    3.6907 C   0  0  0  0  0  0  0  0  0  0  0  0
    5.8264    0.9539    2.8757 C   0  0  0  0  0  0  0  0  0  0  0  0
    3.7077    3.0873    4.6338 C   0  0  0  0  0  0  0  0  0  0  0  0
    3.4394    1.7916    3.0336 C   0  0  0  0  0  0  0  0  0  0  0  0
    2.8401    1.0055    1.9117 C   0  0  0  0  0  0  0  0  0  0  0  0
    0.7608    0.5109    0.6412 C   0  0  1  0  0  0  0  0  0  0  0  0
   -0.7256    0.7150    0.8885 C   0  0  0  0  0  0  0  0  0  0  0  0
   -1.3546    1.2465   -0.4099 C   0  0  1  0  0  0  0  0  0  0  0  0
   -0.3068    0.9231   -1.4605 C   0  0  2  0  0  0  0  0  0  0  0  0
   -0.4743   -0.4930   -1.9531 C   0  0  0  0  0  0  0  0  0  0  0  0
   -2.7379   -1.3091   -2.4310 C   0  0  0  0  0  0  0  0  0  0  0  0
   -3.8331   -1.4316   -3.4631 C   0  0  0  0  0  0  0  0  0  0  0  0
   -4.9743   -2.3716   -3.1474 C   0  0  0  0  0  0  0  0  0  0  0  0
   -6.2896   -2.0419   -2.9219 C   0  0  0  0  0  0  0  0  0  0  0  0
   -4.9173   -3.7663   -3.0221 C   0  0  0  0  0  0  0  0  0  0  0  0
    1.0392    1.0879   -0.7600 C   0  0  0  0  0  0  0  0  0  0  0  0
    4.7139    1.7399    3.4123 N   0  0  0  0  0  0  0  0  0  0  0  0
    4.9140    2.5789    4.4632 N   0  0  0  0  0  0  0  0  0  0  0  0
    2.7635    2.6389    3.7875 N   0  0  0  0  0  0  0  0  0  0  0  0
    1.5500    1.2254    1.6539 N   0  0  0  0  0  0  0  0  0  0  0  0
   -1.6208   -0.7005   -2.8395 N   0  0  0  0  0  0  0  0  0  0  0  0
   -6.9480   -3.2002   -2.6791 N   0  0  0  0  0  0  0  0  0  0  0  0
   -6.1210   -4.2750   -2.7427 N   0  0  0  0  0  0  0  0  0  0  0  0
    3.5149    0.2070    1.2755 O   0  0  0  0  0  0  0  0  0  0  0  0
   -2.5859    0.5801   -0.6926 O   0  0  0  0  0  0  0  0  0  0  0  0
   -2.8827   -1.7472   -1.2928 O   0  0  0  0  0  0  0  0  0  0  0  0
    7.0488   -0.7007    3.4022 H   0  0  0  0  0  0  0  0  0  0  0  0
    5.3329   -1.0090    3.5167 H   0  0  0  0  0  0  0  0  0  0  0  0
    6.1289   -0.0349    4.7299 H   0  0  0  0  0  0  0  0  0  0  0  0
    5.5877    0.6609    1.8747 H   0  0  0  0  0  0  0  0  0  0  0  0
    6.7055    1.5638    2.8695 H   0  0  0  0  0  0  0  0  0  0  0  0
    3.5012    3.7883    5.3738 H   0  0  0  0  0  0  0  0  0  0  0  0
    1.0942    1.9156    2.1796 H   0  0  0  0  0  0  0  0  0  0  0  0
    1.0030   -0.5309    0.6693 H   0  0  0  0  0  0  0  0  0  0  0  0
   -0.8684    1.4234    1.6775 H   0  0  0  0  0  0  0  0  0  0  0  0
   -1.1800   -0.2157    1.1574 H   0  0  0  0  0  0  0  0  0  0  0  0
   -1.5249    2.3012   -0.3499 H   0  0  0  0  0  0  0  0  0  0  0  0
   -2.9407    1.0980   -1.4189 H   0  0  0  0  0  0  0  0  0  0  0  0
   -0.3838    1.5998   -2.2857 H   0  0  0  0  0  0  0  0  0  0  0  0
   -0.5918   -1.1303   -1.1016 H   0  0  0  0  0  0  0  0  0  0  0  0
    0.4124   -0.7678   -2.4852 H   0  0  0  0  0  0  0  0  0  0  0  0
   -1.5671   -0.3818   -3.7647 H   0  0  0  0  0  0  0  0  0  0  0  0
   -3.3820   -1.7668   -4.3736 H   0  0  0  0  0  0  0  0  0  0  0  0
   -4.2494   -0.4567   -3.6086 H   0  0  0  0  0  0  0  0  0  0  0  0
   -6.7003   -1.0865   -2.9351 H   0  0  0  0  0  0  0  0  0  0  0  0
   -7.9062   -3.2559   -2.4813 H   0  0  0  0  0  0  0  0  0  0  0  0
   -4.0513   -4.3315   -3.1321 H   0  0  0  0  0  0  0  0  0  0  0  0
    1.8056    0.5339   -1.2606 H   0  0  0  0  0  0  0  0  0  0  0  0
    1.3220    2.1184   -0.7042 H   0  0  0  0  0  0  0  0  0  0  0  0
  1  2  1  0  0  0  0
  1 27  1  0  0  0  0
  1 28  1  0  0  0  0
  1 29  1  0  0  0  0
  2 17  1  0  0  0  0
  2 30  1  0  0  0  0
  2 31  1  0  0  0  0
  3 19  1  0  0  0  0
  3 32  1  0  0  0  0
  3 18  2  0  0  0  0
  4 17  1  0  0  0  0
  4  5  1  0  0  0  0
  4 19  2  0  0  0  0
  5 20  1  0  0  0  0
  5 24  2  0  0  0  0
  6 20  1  0  0  0  0
  6  7  1  0  0  0  0
  6 16  1  0  0  0  0
  6 34  1  1  0  0  0
  7  8  1  0  0  0  0
  7 35  1  0  0  0  0
  7 36  1  0  0  0  0
  8 25  1  0  0  0  0
  8  9  1  0  0  0  0
  8 37  1  1  0  0  0
  9 10  1  0  0  0  0
  9 16  1  0  0  0  0
  9 39  1  6  0  0  0
 10 21  1  0  0  0  0
 10 40  1  0  0  0  0
 10 41  1  0  0  0  0
 11 21  1  0  0  0  0
 11 12  1  0  0  0  0
 11 26  2  0  0  0  0
 12 13  1  0  0  0  0
 12 43  1  0  0  0  0
 12 44  1  0  0  0  0
 13 15  1  0  0  0  0
 13 14  2  0  0  0  0
 14 22  1  0  0  0  0
 14 45  1  0  0  0  0
 15 47  1  0  0  0  0
 15 23  2  0  0  0  0
 16 48  1  0  0  0  0
 16 49  1  0  0  0  0
 17 18  1  0  0  0  0
 20 33  1  0  0  0  0
 21 42  1  0  0  0  0
 22 23  1  0  0  0  0
 22 46  1  0  0  0  0
 25 38  1  0  0  0  0
M  END
>  <score>
0.45234584808349609

$$$$
Z4603130335
 OpenBabel08202115463D

 57 60  0  0  0  0  0  0  0  0999 V2000
    5.2101    0.1645    1.4044 C   0  0  0  0  0  0  0  0  0  0  0  0
    4.7407    0.6931    2.7408 C   0  0  0  0  0  0  0  0  0  0  0  0
    5.7617    1.6582    3.3325 C   0  0  0  0  0  0  0  0  0  0  0  0
    4.4376   -0.4400    3.6998 C   0  0  0  0  0  0  0  0  0  0  0  0
    2.4862    0.8072    2.0621 C   0  0  1  0  0  0  0  0  0  0  0  0
    1.1130    1.3145    2.5387 C   0  0  0  0  0  0  0  0  0  0  0  0
    1.0969    2.2241    1.2968 C   0  0  2  0  0  0  0  0  0  0  0  0
   -0.2556    2.3482    0.6144 C   0  0  0  0  0  0  0  0  0  0  0  0
   -2.0176    0.8523   -0.3913 C   0  0  0  0  0  0  0  0  0  0  0  0
   -2.4254   -0.5756   -0.6057 C   0  0  0  0  0  0  0  0  0  0  0  0
   -4.0817   -1.7527   -1.9925 C   0  0  0  0  0  0  0  0  0  0  0  0
   -4.0022   -3.9950   -2.3681 C   0  0  0  0  0  0  0  0  0  0  0  0
   -5.7916   -2.9062   -3.2431 C   0  0  0  0  0  0  0  0  0  0  0  0
   -6.9998   -2.9230   -3.9864 C   0  0  0  0  0  0  0  0  0  0  0  0
   -7.7007   -1.7645   -4.2010 C   0  0  0  0  0  0  0  0  0  0  0  0
   -7.2265   -0.5293   -3.6518 C   0  0  0  0  0  0  0  0  0  0  0  0
   -6.0543   -0.4962   -2.9459 C   0  0  0  0  0  0  0  0  0  0  0  0
   -5.3137   -1.6853   -2.7280 C   0  0  0  0  0  0  0  0  0  0  0  0
    2.0511    1.2134    0.6536 C   0  0  0  0  0  0  0  0  0  0  0  0
    1.5450    0.1747   -0.3480 C   0  0  0  0  0  0  0  0  0  0  0  0
    2.9459    0.2322   -0.9837 C   0  0  0  0  0  0  0  0  0  0  0  0
    3.0749    1.6490   -0.3953 C   0  0  0  0  0  0  0  0  0  0  0  0
    3.6013    1.5306    2.5749 O   0  0  0  0  0  0  0  0  0  0  0  0
   -2.6299    1.8076   -0.8302 O   0  0  0  0  0  0  0  0  0  0  0  0
   -3.6001   -0.5996   -1.4845 O   0  0  0  0  0  0  0  0  0  0  0  0
   -0.8743    1.0472    0.3534 N   0  0  0  0  0  0  0  0  0  0  0  0
   -3.4347   -2.8972   -1.8136 N   0  0  0  0  0  0  0  0  0  0  0  0
   -5.1148   -4.0922   -3.0605 N   0  0  0  0  0  0  0  0  0  0  0  0
    4.4089   -0.3591    0.9260 H   0  0  0  0  0  0  0  0  0  0  0  0
    6.0329   -0.5029    1.5541 H   0  0  0  0  0  0  0  0  0  0  0  0
    5.5207    0.9815    0.7871 H   0  0  0  0  0  0  0  0  0  0  0  0
    6.6360    1.1166    3.6276 H   0  0  0  0  0  0  0  0  0  0  0  0
    5.3388    2.1450    4.1864 H   0  0  0  0  0  0  0  0  0  0  0  0
    6.0268    2.3905    2.5988 H   0  0  0  0  0  0  0  0  0  0  0  0
    4.1662   -0.0378    4.6534 H   0  0  0  0  0  0  0  0  0  0  0  0
    5.3048   -1.0576    3.8071 H   0  0  0  0  0  0  0  0  0  0  0  0
    3.6279   -1.0247    3.3160 H   0  0  0  0  0  0  0  0  0  0  0  0
    2.6485   -0.2418    2.1967 H   0  0  0  0  0  0  0  0  0  0  0  0
    1.1292    1.8352    3.4734 H   0  0  0  0  0  0  0  0  0  0  0  0
    0.3441    0.5707    2.5575 H   0  0  0  0  0  0  0  0  0  0  0  0
    1.5111    3.1989    1.4487 H   0  0  0  0  0  0  0  0  0  0  0  0
   -0.1243    2.8583   -0.3169 H   0  0  0  0  0  0  0  0  0  0  0  0
   -0.9067    2.9172    1.2446 H   0  0  0  0  0  0  0  0  0  0  0  0
   -0.4431    0.2553    0.7372 H   0  0  0  0  0  0  0  0  0  0  0  0
   -2.6689   -1.0258    0.3339 H   0  0  0  0  0  0  0  0  0  0  0  0
   -1.6223   -1.1150   -1.0627 H   0  0  0  0  0  0  0  0  0  0  0  0
   -3.4847   -4.8858   -2.2260 H   0  0  0  0  0  0  0  0  0  0  0  0
   -7.3564   -3.8208   -4.3714 H   0  0  0  0  0  0  0  0  0  0  0  0
   -8.5761   -1.7824   -4.7621 H   0  0  0  0  0  0  0  0  0  0  0  0
   -7.7740    0.3441   -3.7899 H   0  0  0  0  0  0  0  0  0  0  0  0
   -5.7047    0.4070   -2.5669 H   0  0  0  0  0  0  0  0  0  0  0  0
    1.2846   -0.7711    0.0794 H   0  0  0  0  0  0  0  0  0  0  0  0
    0.7508    0.5115   -0.9810 H   0  0  0  0  0  0  0  0  0  0  0  0
    3.6434   -0.4791   -0.5931 H   0  0  0  0  0  0  0  0  0  0  0  0
    2.9535    0.1899   -2.0528 H   0  0  0  0  0  0  0  0  0  0  0  0
    4.0428    1.8868   -0.0061 H   0  0  0  0  0  0  0  0  0  0  0  0
    2.7472    2.4353   -1.0428 H   0  0  0  0  0  0  0  0  0  0  0  0
  1  2  1  0  0  0  0
  1 29  1  0  0  0  0
  1 30  1  0  0  0  0
  1 31  1  0  0  0  0
  2  3  1  0  0  0  0
  2  4  1  0  0  0  0
  2 23  1  0  0  0  0
  3 32  1  0  0  0  0
  3 33  1  0  0  0  0
  3 34  1  0  0  0  0
  4 35  1  0  0  0  0
  4 36  1  0  0  0  0
  4 37  1  0  0  0  0
  5 23  1  0  0  0  0
  5  6  1  0  0  0  0
  5 19  1  0  0  0  0
  5 38  1  1  0  0  0
  6  7  1  0  0  0  0
  6 39  1  0  0  0  0
  6 40  1  0  0  0  0
  7  8  1  0  0  0  0
  7 19  1  0  0  0  0
  7 41  1  1  0  0  0
  8 26  1  0  0  0  0
  8 42  1  0  0  0  0
  8 43  1  0  0  0  0
  9 26  1  0  0  0  0
  9 10  1  0  0  0  0
  9 24  2  0  0  0  0
 10 25  1  0  0  0  0
 10 45  1  0  0  0  0
 10 46  1  0  0  0  0
 11 25  1  0  0  0  0
 11 18  1  0  0  0  0
 11 27  2  0  0  0  0
 12 27  1  0  0  0  0
 12 47  1  0  0  0  0
 12 28  2  0  0  0  0
 13 28  1  0  0  0  0
 13 18  1  0  0  0  0
 13 14  2  0  0  0  0
 14 15  1  0  0  0  0
 14 48  1  0  0  0  0
 15 49  1  0  0  0  0
 15 16  2  0  0  0  0
 16 17  1  0  0  0  0
 16 50  1  0  0  0  0
 17 51  1  0  0  0  0
 17 18  2  0  0  0  0
 19 20  1  0  0  0  0
 19 22  1  0  0  0  0
 20 21  1  0  0  0  0
 20 52  1  0  0  0  0
 20 53  1  0  0  0  0
 21 22  1  0  0  0  0
 21 54  1  0  0  0  0
 21 55  1  0  0  0  0
 22 56  1  0  0  0  0
 22 57  1  0  0  0  0
 26 44  1  0  0  0  0
M  END
>  <score>
0.45248621702194214

$$$$
PV-003058694257
 OpenBabel08202115463D

 50 52  0  0  0  0  0  0  0  0999 V2000
    3.7186    1.2125    4.2264 C   0  0  0  0  0  0  0  0  0  0  0  0
    3.3094    0.5384    2.9270 C   0  0  1  0  0  0  0  0  0  0  0  0
    2.0258    1.1261    2.3682 C   0  0  0  0  0  0  0  0  0  0  0  0
   -0.2223    0.6531    1.5300 C   0  0  0  0  0  0  0  0  0  0  0  0
   -0.2478    0.7194    0.0201 C   0  0  2  0  0  0  0  0  0  0  0  0
   -1.6725    0.6561   -0.6110 C   0  0  0  0  0  0  0  0  0  0  0  0
   -1.1888   -0.4114   -1.6176 C   0  0  2  0  0  0  0  0  0  0  0  0
   -2.0972   -1.6143   -1.7464 C   0  0  0  0  0  0  0  0  0  0  0  0
   -4.3164   -2.2161   -2.6343 C   0  0  0  0  0  0  0  0  0  0  0  0
   -5.5036   -1.7931   -3.3913 C   0  0  0  0  0  0  0  0  0  0  0  0
   -6.6797   -2.3880   -3.6898 C   0  0  0  0  0  0  0  0  0  0  0  0
   -7.2186   -1.2270   -4.4866 C   0  0  0  0  0  0  0  0  0  0  0  0
   -5.8756   -0.5153   -4.1382 C   0  0  0  0  0  0  0  0  0  0  0  0
    0.0457   -0.6260   -0.6924 C   0  0  0  0  0  0  0  0  0  0  0  0
    4.4492    0.6148    1.9037 C   0  0  0  0  0  0  0  0  0  0  0  0
    4.9924    2.0475    1.6693 C   0  0  0  0  0  0  0  0  0  0  0  0
    6.3912    1.6034    2.2341 C   0  0  0  0  0  0  0  0  0  0  0  0
    5.8480    0.1708    2.4684 C   0  0  0  0  0  0  0  0  0  0  0  0
    1.8898    2.3302    2.2267 O   0  0  0  0  0  0  0  0  0  0  0  0
   -4.2855   -3.3146   -2.0958 O   0  0  0  0  0  0  0  0  0  0  0  0
    1.0743    0.2441    2.0489 N   0  0  0  0  0  0  0  0  0  0  0  0
   -3.3191   -1.3175   -2.4962 N   0  0  0  0  0  0  0  0  0  0  0  0
    0.5571    1.8219   -0.4248 F   0  0  0  0  0  0  0  0  0  0  0  0
   -7.3281   -3.9185   -3.3010 Cl  0  0  0  0  0  0  0  0  0  0  0  0
    4.6084    0.7526    4.6026 H   0  0  0  0  0  0  0  0  0  0  0  0
    2.9325    1.1086    4.9448 H   0  0  0  0  0  0  0  0  0  0  0  0
    3.9029    2.2511    4.0464 H   0  0  0  0  0  0  0  0  0  0  0  0
    3.1315   -0.4956    3.1371 H   0  0  0  0  0  0  0  0  0  0  0  0
    1.2559   -0.7115    2.1684 H   0  0  0  0  0  0  0  0  0  0  0  0
   -0.4576    1.6214    1.9197 H   0  0  0  0  0  0  0  0  0  0  0  0
   -0.9593   -0.0514    1.8547 H   0  0  0  0  0  0  0  0  0  0  0  0
   -2.4309    0.3101    0.0599 H   0  0  0  0  0  0  0  0  0  0  0  0
   -1.9885    1.5718   -1.0655 H   0  0  0  0  0  0  0  0  0  0  0  0
   -0.9563   -0.0334   -2.5912 H   0  0  0  0  0  0  0  0  0  0  0  0
   -2.3686   -1.9456   -0.7659 H   0  0  0  0  0  0  0  0  0  0  0  0
   -1.5653   -2.3930   -2.2521 H   0  0  0  0  0  0  0  0  0  0  0  0
   -3.4161   -0.4355   -2.9124 H   0  0  0  0  0  0  0  0  0  0  0  0
   -7.3699   -1.4237   -5.5274 H   0  0  0  0  0  0  0  0  0  0  0  0
   -8.0940   -0.7661   -4.0792 H   0  0  0  0  0  0  0  0  0  0  0  0
   -5.2548   -0.2887   -4.9797 H   0  0  0  0  0  0  0  0  0  0  0  0
   -5.9735    0.3540   -3.5221 H   0  0  0  0  0  0  0  0  0  0  0  0
   -0.0305   -1.4824   -0.0554 H   0  0  0  0  0  0  0  0  0  0  0  0
    0.9809   -0.6493   -1.2118 H   0  0  0  0  0  0  0  0  0  0  0  0
    4.1596    0.1065    1.0078 H   0  0  0  0  0  0  0  0  0  0  0  0
    4.5046    2.8010    2.2518 H   0  0  0  0  0  0  0  0  0  0  0  0
    5.0102    2.3460    0.6420 H   0  0  0  0  0  0  0  0  0  0  0  0
    6.6809    2.1117    3.1300 H   0  0  0  0  0  0  0  0  0  0  0  0
    7.1864    1.6567    1.5202 H   0  0  0  0  0  0  0  0  0  0  0  0
    6.3358   -0.5826    1.8860 H   0  0  0  0  0  0  0  0  0  0  0  0
    5.8302   -0.1277    3.4958 H   0  0  0  0  0  0  0  0  0  0  0  0
  1  2  1  0  0  0  0
  1 25  1  0  0  0  0
  1 26  1  0  0  0  0
  1 27  1  0  0  0  0
  2  3  1  0  0  0  0
  2 15  1  0  0  0  0
  2 28  1  1  0  0  0
  3 21  1  0  0  0  0
  3 19  2  0  0  0  0
  4 21  1  0  0  0  0
  4  5  1  0  0  0  0
  4 30  1  0  0  0  0
  4 31  1  0  0  0  0
  5 23  1  6  0  0  0
  5  6  1  0  0  0  0
  5 14  1  0  0  0  0
  6  7  1  0  0  0  0
  6 32  1  0  0  0  0
  6 33  1  0  0  0  0
  7  8  1  0  0  0  0
  7 14  1  0  0  0  0
  7 34  1  6  0  0  0
  8 22  1  0  0  0  0
  8 35  1  0  0  0  0
  8 36  1  0  0  0  0
  9 22  1  0  0  0  0
  9 10  1  0  0  0  0
  9 20  2  0  0  0  0
 10 13  1  0  0  0  0
 10 11  2  0  0  0  0
 11 24  1  0  0  0  0
 11 12  1  0  0  0  0
 12 13  1  0  0  0  0
 12 38  1  0  0  0  0
 12 39  1  0  0  0  0
 13 40  1  0  0  0  0
 13 41  1  0  0  0  0
 14 42  1  0  0  0  0
 14 43  1  0  0  0  0
 15 16  1  0  0  0  0
 15 18  1  0  0  0  0
 15 44  1  0  0  0  0
 16 17  1  0  0  0  0
 16 45  1  0  0  0  0
 16 46  1  0  0  0  0
 17 18  1  0  0  0  0
 17 47  1  0  0  0  0
 17 48  1  0  0  0  0
 18 49  1  0  0  0  0
 18 50  1  0  0  0  0
 21 29  1  0  0  0  0
 22 37  1  0  0  0  0
M  END
>  <score>
0.45251715183258057

$$$$
Z3357870926
 OpenBabel08202115463D

 47 47  0  0  0  0  0  0  0  0999 V2000
    4.6321    3.4239    1.3877 C   0  0  0  0  0  0  0  0  0  0  0  0
    3.6507    2.4741    2.0839 C   0  0  2  0  0  0  0  0  0  0  0  0
    1.4694    1.4537    1.5199 C   0  0  0  0  0  0  0  0  0  0  0  0
    0.3130    1.5051    0.5703 C   0  0  2  0  0  0  0  0  0  0  0  0
   -0.2608    0.1656    0.1499 C   0  0  0  0  0  0  0  0  0  0  0  0
   -1.5342    0.2865   -0.6698 C   0  0  0  0  0  0  0  0  0  0  0  0
   -3.1904   -1.1382   -1.8213 C   0  0  0  0  0  0  0  0  0  0  0  0
   -4.6434   -2.7612   -2.8761 C   0  0  0  0  0  0  0  0  0  0  0  0
   -4.4824   -1.9729   -4.1658 C   0  0  0  0  0  0  0  0  0  0  0  0
   -5.8399   -2.2635   -2.0816 C   0  0  0  0  0  0  0  0  0  0  0  0
   -4.7034   -4.2539   -3.1563 C   0  0  0  0  0  0  0  0  0  0  0  0
    4.3316    1.1928    2.4334 C   0  0  0  0  0  0  0  0  0  0  0  0
    4.3434   -0.0231    1.7967 C   0  0  0  0  0  0  0  0  0  0  0  0
    5.4596    1.9810    4.5679 C   0  0  0  0  0  0  0  0  0  0  0  0
    2.4956    2.2529    1.2267 N   0  0  0  0  0  0  0  0  0  0  0  0
   -2.0405   -1.0128   -1.1155 N   0  0  0  0  0  0  0  0  0  0  0  0
    5.1190   -0.8711    2.5346 N   0  0  0  0  0  0  0  0  0  0  0  0
    5.5793   -0.2354    3.5818 N   0  0  0  0  0  0  0  0  0  0  0  0
    5.1047    1.0260    3.5235 N   0  0  0  0  0  0  0  0  0  0  0  0
    1.4556    0.7145    2.5032 O   0  0  0  0  0  0  0  0  0  0  0  0
   -3.9328   -0.2138   -2.1088 O   0  0  0  0  0  0  0  0  0  0  0  0
   -3.3909   -2.4346   -2.1576 O   0  0  0  0  0  0  0  0  0  0  0  0
    0.6685    2.2235   -0.5546 F   0  0  0  0  0  0  0  0  0  0  0  0
    5.5426    3.4702    1.9479 H   0  0  0  0  0  0  0  0  0  0  0  0
    4.2005    4.4011    1.3275 H   0  0  0  0  0  0  0  0  0  0  0  0
    4.8384    3.0632    0.4016 H   0  0  0  0  0  0  0  0  0  0  0  0
    3.3276    2.9388    2.9919 H   0  0  0  0  0  0  0  0  0  0  0  0
    2.4700    2.7271    0.3695 H   0  0  0  0  0  0  0  0  0  0  0  0
   -0.4717    2.0341    1.0695 H   0  0  0  0  0  0  0  0  0  0  0  0
   -0.4768   -0.4024    1.0305 H   0  0  0  0  0  0  0  0  0  0  0  0
    0.4722   -0.3486   -0.4360 H   0  0  0  0  0  0  0  0  0  0  0  0
   -1.3320    0.8893   -1.5304 H   0  0  0  0  0  0  0  0  0  0  0  0
   -2.2840    0.7595   -0.0706 H   0  0  0  0  0  0  0  0  0  0  0  0
   -1.5301   -1.8200   -0.8957 H   0  0  0  0  0  0  0  0  0  0  0  0
   -3.6255   -2.3299   -4.6979 H   0  0  0  0  0  0  0  0  0  0  0  0
   -4.3527   -0.9360   -3.9359 H   0  0  0  0  0  0  0  0  0  0  0  0
   -5.3556   -2.0980   -4.7713 H   0  0  0  0  0  0  0  0  0  0  0  0
   -5.7115   -1.2257   -1.8550 H   0  0  0  0  0  0  0  0  0  0  0  0
   -5.9195   -2.8200   -1.1711 H   0  0  0  0  0  0  0  0  0  0  0  0
   -6.7309   -2.3946   -2.6594 H   0  0  0  0  0  0  0  0  0  0  0  0
   -4.8652   -4.7830   -2.2405 H   0  0  0  0  0  0  0  0  0  0  0  0
   -3.7799   -4.5719   -3.5933 H   0  0  0  0  0  0  0  0  0  0  0  0
   -5.5073   -4.4576   -3.8324 H   0  0  0  0  0  0  0  0  0  0  0  0
    3.8502   -0.2568    0.9114 H   0  0  0  0  0  0  0  0  0  0  0  0
    4.6393    2.0898    5.2462 H   0  0  0  0  0  0  0  0  0  0  0  0
    5.6827    2.9285    4.1235 H   0  0  0  0  0  0  0  0  0  0  0  0
    6.3171    1.6252    5.0998 H   0  0  0  0  0  0  0  0  0  0  0  0
  1  2  1  0  0  0  0
  1 24  1  0  0  0  0
  1 25  1  0  0  0  0
  1 26  1  0  0  0  0
  2 15  1  0  0  0  0
  2 12  1  0  0  0  0
  2 27  1  1  0  0  0
  3 15  1  0  0  0  0
  3  4  1  0  0  0  0
  3 20  2  0  0  0  0
  4 23  1  0  0  0  0
  4  5  1  0  0  0  0
  4 29  1  1  0  0  0
  5  6  1  0  0  0  0
  5 30  1  0  0  0  0
  5 31  1  0  0  0  0
  6 16  1  0  0  0  0
  6 32  1  0  0  0  0
  6 33  1  0  0  0  0
  7 16  1  0  0  0  0
  7 22  1  0  0  0  0
  7 21  2  0  0  0  0
  8 22  1  0  0  0  0
  8  9  1  0  0  0  0
  8 10  1  0  0  0  0
  8 11  1  0  0  0  0
  9 35  1  0  0  0  0
  9 36  1  0  0  0  0
  9 37  1  0  0  0  0
 10 38  1  0  0  0  0
 10 39  1  0  0  0  0
 10 40  1  0  0  0  0
 11 41  1  0  0  0  0
 11 42  1  0  0  0  0
 11 43  1  0  0  0  0
 12 19  1  0  0  0  0
 12 13  2  0  0  0  0
 13 17  1  0  0  0  0
 13 44  1  0  0  0  0
 14 19  1  0  0  0  0
 14 45  1  0  0  0  0
 14 46  1  0  0  0  0
 14 47  1  0  0  0  0
 15 28  1  0  0  0  0
 16 34  1  0  0  0  0
 17 18  2  0  0  0  0
 18 19  1  0  0  0  0
M  END
>  <score>
0.45261240005493164

$$$$
Z3702400685
 OpenBabel08202115463D

 45 46  0  0  0  0  0  0  0  0999 V2000
   -0.0722   -1.3737    0.4628 C   0  0  0  0  0  0  0  0  0  0  0  0
    0.4023    1.0371    0.0362 C   0  0  0  0  0  0  0  0  0  0  0  0
    1.6427    0.7621    0.8497 C   0  0  0  0  0  0  0  0  0  0  0  0
    2.6723    1.8766    0.7733 C   0  0  0  0  0  0  0  0  0  0  0  0
    5.0122    2.3661    1.0667 C   0  0  0  0  0  0  0  0  0  0  0  0
    5.8144    2.7301    2.3136 C   0  0  0  0  0  0  0  0  0  0  0  0
    5.1787    1.9489    3.4316 C   0  0  0  0  0  0  0  0  0  0  0  0
    3.7754    1.5931    2.8883 C   0  0  0  0  0  0  0  0  0  0  0  0
   -1.6187   -0.0149   -0.8519 C   0  0  0  0  0  0  0  0  0  0  0  0
   -3.4262   -1.2901   -1.8944 C   0  0  0  0  0  0  0  0  0  0  0  0
   -4.0775   -2.6726   -1.8222 C   0  0  1  0  0  0  0  0  0  0  0  0
   -5.4576   -2.8465   -1.2619 C   0  0  0  0  0  0  0  0  0  0  0  0
   -5.2291   -2.9468   -2.7375 C   0  0  1  0  0  0  0  0  0  0  0  0
   -5.7130   -1.9419   -3.7582 C   0  0  0  0  0  0  0  0  0  0  0  0
   -0.4603   -0.1187   -0.1673 N   0  0  0  0  0  0  0  0  0  0  0  0
    3.9083    1.4677    1.4368 N   0  0  0  0  0  0  0  0  0  0  0  0
   -2.3679   -1.1196   -0.9102 N   0  0  0  0  0  0  0  0  0  0  0  0
   -1.9806    1.0349   -1.3994 O   0  0  0  0  0  0  0  0  0  0  0  0
   -7.0692   -1.9631   -3.7212 F   0  0  0  0  0  0  0  0  0  0  0  0
   -5.3248   -2.3335   -4.9688 F   0  0  0  0  0  0  0  0  0  0  0  0
   -0.3772   -1.3677    1.4884 H   0  0  0  0  0  0  0  0  0  0  0  0
    0.9905   -1.4865    0.4077 H   0  0  0  0  0  0  0  0  0  0  0  0
   -0.5447   -2.1885   -0.0448 H   0  0  0  0  0  0  0  0  0  0  0  0
   -0.1653    1.7921    0.5388 H   0  0  0  0  0  0  0  0  0  0  0  0
    0.7067    1.3988   -0.9237 H   0  0  0  0  0  0  0  0  0  0  0  0
    2.0916   -0.1398    0.4894 H   0  0  0  0  0  0  0  0  0  0  0  0
    1.3561    0.6346    1.8727 H   0  0  0  0  0  0  0  0  0  0  0  0
    2.2845    2.7496    1.2554 H   0  0  0  0  0  0  0  0  0  0  0  0
    2.8786    2.0973   -0.2531 H   0  0  0  0  0  0  0  0  0  0  0  0
    5.6510    1.8744    0.3630 H   0  0  0  0  0  0  0  0  0  0  0  0
    4.6144    3.2566    0.6265 H   0  0  0  0  0  0  0  0  0  0  0  0
    6.8401    2.4492    2.1952 H   0  0  0  0  0  0  0  0  0  0  0  0
    5.7518    3.7806    2.5068 H   0  0  0  0  0  0  0  0  0  0  0  0
    5.7401    1.0630    3.6437 H   0  0  0  0  0  0  0  0  0  0  0  0
    5.1038    2.5448    4.3172 H   0  0  0  0  0  0  0  0  0  0  0  0
    3.0789    2.3687    3.1295 H   0  0  0  0  0  0  0  0  0  0  0  0
    3.4403    0.6683    3.3095 H   0  0  0  0  0  0  0  0  0  0  0  0
   -2.1988   -1.8401   -0.2678 H   0  0  0  0  0  0  0  0  0  0  0  0
   -3.0105   -1.1576   -2.8714 H   0  0  0  0  0  0  0  0  0  0  0  0
   -4.1774   -0.5478   -1.7222 H   0  0  0  0  0  0  0  0  0  0  0  0
   -3.4031   -3.4878   -1.6624 H   0  0  0  0  0  0  0  0  0  0  0  0
   -5.9808   -2.0053   -0.8574 H   0  0  0  0  0  0  0  0  0  0  0  0
   -5.6993   -3.7227   -0.6971 H   0  0  0  0  0  0  0  0  0  0  0  0
   -5.2505   -3.9525   -3.1025 H   0  0  0  0  0  0  0  0  0  0  0  0
   -5.3293   -0.9747   -3.5088 H   0  0  0  0  0  0  0  0  0  0  0  0
  1 15  1  0  0  0  0
  1 21  1  0  0  0  0
  1 22  1  0  0  0  0
  1 23  1  0  0  0  0
  2 15  1  0  0  0  0
  2  3  1  0  0  0  0
  2 24  1  0  0  0  0
  2 25  1  0  0  0  0
  3  4  1  0  0  0  0
  3 26  1  0  0  0  0
  3 27  1  0  0  0  0
  4 16  1  0  0  0  0
  4 28  1  0  0  0  0
  4 29  1  0  0  0  0
  5 16  1  0  0  0  0
  5  6  1  0  0  0  0
  5 30  1  0  0  0  0
  5 31  1  0  0  0  0
  6  7  1  0  0  0  0
  6 32  1  0  0  0  0
  6 33  1  0  0  0  0
  7  8  1  0  0  0  0
  7 34  1  0  0  0  0
  7 35  1  0  0  0  0
  8 16  1  0  0  0  0
  8 36  1  0  0  0  0
  8 37  1  0  0  0  0
  9 15  1  0  0  0  0
  9 17  1  0  0  0  0
  9 18  2  0  0  0  0
 10 17  1  0  0  0  0
 10 11  1  0  0  0  0
 10 39  1  0  0  0  0
 10 40  1  0  0  0  0
 11 12  1  0  0  0  0
 11 13  1  0  0  0  0
 11 41  1  1  0  0  0
 12 13  1  0  0  0  0
 12 42  1  0  0  0  0
 12 43  1  0  0  0  0
 13 14  1  0  0  0  0
 13 44  1  6  0  0  0
 14 19  1  0  0  0  0
 14 20  1  0  0  0  0
 14 45  1  0  0  0  0
 17 38  1  0  0  0  0
M  END
>  <score>
0.45263159275054932

$$$$
Z3558983335
 OpenBabel08202115463D

 46 49  0  0  0  0  0  0  0  0999 V2000
   -0.5261    3.0046   -2.2988 O   0  0  0  0  0  0  0  0  0  0  0  0
    5.9172    0.5898    4.8843 O   0  0  0  0  0  0  0  0  0  0  0  0
    5.8993    2.9308    4.8646 O   0  0  0  0  0  0  0  0  0  0  0  0
   -0.6898    2.1030   -1.4876 C   0  0  0  0  0  0  0  0  0  0  0  0
   -1.9140    0.0649   -0.8025 C   0  0  0  0  0  0  0  0  0  0  0  0
   -2.9279   -0.7807   -1.5318 C   0  0  0  0  0  0  0  0  0  0  0  0
   -2.6445   -1.9696   -2.1265 C   0  0  0  0  0  0  0  0  0  0  0  0
   -3.7812   -2.5388   -2.7542 C   0  0  0  0  0  0  0  0  0  0  0  0
   -4.8973   -1.7797   -2.6235 C   0  0  0  0  0  0  0  0  0  0  0  0
   -6.0979   -2.3575   -3.2891 C   0  0  0  0  0  0  0  0  0  0  0  0
   -5.4892   -3.4912   -4.1691 C   0  0  0  0  0  0  0  0  0  0  0  0
   -4.0856   -3.8185   -3.5136 C   0  0  0  0  0  0  0  0  0  0  0  0
    0.3669    1.7644   -0.5062 C   0  0  0  0  0  0  0  0  0  0  0  0
    1.6607    2.2260   -0.6587 C   0  0  0  0  0  0  0  0  0  0  0  0
    2.2803    1.1627    1.2409 C   0  0  0  0  0  0  0  0  0  0  0  0
    4.6711    0.5944    1.9124 C   0  0  0  0  0  0  0  0  0  0  0  0
    5.4994    1.7512    2.4801 C   0  0  0  0  0  0  0  0  0  0  0  0
    3.5136    1.7527    4.4674 C   0  0  0  0  0  0  0  0  0  0  0  0
    2.9475    0.5939    3.6327 C   0  0  0  0  0  0  0  0  0  0  0  0
    0.1162    0.9782    0.6001 C   0  0  0  0  0  0  0  0  0  0  0  0
   -1.7995    1.3831   -1.4324 N   0  0  0  0  0  0  0  0  0  0  0  0
    2.6400    1.9303    0.2123 N   0  0  0  0  0  0  0  0  0  0  0  0
    3.2530    0.8010    2.2153 N   0  0  0  0  0  0  0  0  0  0  0  0
    1.0678    0.6630    1.4910 N   0  0  0  0  0  0  0  0  0  0  0  0
   -4.6041   -0.3552   -1.7157 S   0  0  0  0  0  0  0  0  0  0  0  0
    5.3230    1.7606    4.2896 S   0  0  0  0  0  0  0  0  0  0  0  0
   -2.6051    1.7602   -1.8438 H   0  0  0  0  0  0  0  0  0  0  0  0
   -2.2227    0.1862    0.2148 H   0  0  0  0  0  0  0  0  0  0  0  0
   -0.9622   -0.4231   -0.8311 H   0  0  0  0  0  0  0  0  0  0  0  0
   -1.7027   -2.4107   -2.1217 H   0  0  0  0  0  0  0  0  0  0  0  0
   -6.5944   -1.6259   -3.8917 H   0  0  0  0  0  0  0  0  0  0  0  0
   -6.7843   -2.7537   -2.5702 H   0  0  0  0  0  0  0  0  0  0  0  0
   -5.3631   -3.1563   -5.1775 H   0  0  0  0  0  0  0  0  0  0  0  0
   -6.1198   -4.3555   -4.1560 H   0  0  0  0  0  0  0  0  0  0  0  0
   -3.3442   -4.0122   -4.2605 H   0  0  0  0  0  0  0  0  0  0  0  0
   -4.1525   -4.6562   -2.8512 H   0  0  0  0  0  0  0  0  0  0  0  0
    1.8847    2.8250   -1.4788 H   0  0  0  0  0  0  0  0  0  0  0  0
    4.9975   -0.3248    2.3523 H   0  0  0  0  0  0  0  0  0  0  0  0
    4.8044    0.5499    0.8517 H   0  0  0  0  0  0  0  0  0  0  0  0
    5.1456    2.6780    2.0791 H   0  0  0  0  0  0  0  0  0  0  0  0
    6.5286    1.6189    2.2194 H   0  0  0  0  0  0  0  0  0  0  0  0
    3.2526    1.6177    5.4962 H   0  0  0  0  0  0  0  0  0  0  0  0
    3.1124    2.6803    4.1159 H   0  0  0  0  0  0  0  0  0  0  0  0
    1.8865    0.5486    3.7634 H   0  0  0  0  0  0  0  0  0  0  0  0
    3.3871   -0.3254    3.9591 H   0  0  0  0  0  0  0  0  0  0  0  0
   -0.8474    0.6163    0.7485 H   0  0  0  0  0  0  0  0  0  0  0  0
  4 21  1  0  0  0  0
  4 13  1  0  0  0  0
  4  1  2  0  0  0  0
  5 21  1  0  0  0  0
  5  6  1  0  0  0  0
  5 28  1  0  0  0  0
  5 29  1  0  0  0  0
  6 25  1  0  0  0  0
  6  7  2  0  0  0  0
  7  8  1  0  0  0  0
  7 30  1  0  0  0  0
  8 12  1  0  0  0  0
  8  9  2  0  0  0  0
  9 10  1  0  0  0  0
  9 25  1  0  0  0  0
 10 11  1  0  0  0  0
 10 31  1  0  0  0  0
 10 32  1  0  0  0  0
 11 12  1  0  0  0  0
 11 33  1  0  0  0  0
 11 34  1  0  0  0  0
 12 35  1  0  0  0  0
 12 36  1  0  0  0  0
 13 20  1  0  0  0  0
 13 14  2  0  0  0  0
 14 22  1  0  0  0  0
 14 37  1  0  0  0  0
 15 23  1  0  0  0  0
 15 24  1  0  0  0  0
 15 22  2  0  0  0  0
 16 23  1  0  0  0  0
 16 17  1  0  0  0  0
 16 38  1  0  0  0  0
 16 39  1  0  0  0  0
 17 40  1  0  0  0  0
 17 41  1  0  0  0  0
 18 19  1  0  0  0  0
 18 42  1  0  0  0  0
 18 43  1  0  0  0  0
 19 23  1  0  0  0  0
 19 44  1  0  0  0  0
 19 45  1  0  0  0  0
 20 46  1  0  0  0  0
 20 24  2  0  0  0  0
 21 27  1  0  0  0  0
 26 17  1  0  0  0  0
 26 18  1  0  0  0  0
 26  2  2  0  0  0  0
 26  3  2  0  0  0  0
M  END
>  <score>
0.45268094539642334

$$$$
PV-003990741496
 OpenBabel08202115463D

 62 64  0  0  0  0  0  0  0  0999 V2000
    1.4330   -1.2847   -0.2531 C   0  0  0  0  0  0  0  0  0  0  0  0
   -0.6902   -0.6577    0.8901 C   0  0  0  0  0  0  0  0  0  0  0  0
   -1.6619   -0.4389   -0.2791 C   0  0  0  0  0  0  0  0  0  0  0  0
   -1.1076   -1.1328   -1.5290 C   0  0  0  0  0  0  0  0  0  0  0  0
   -1.8634    1.0542   -0.5594 C   0  0  0  0  0  0  0  0  0  0  0  0
   -2.9876   -1.0711    0.0657 C   0  0  0  0  0  0  0  0  0  0  0  0
   -4.1081   -2.1283   -1.8584 C   0  0  0  0  0  0  0  0  0  0  0  0
   -5.1731   -1.9596   -2.9144 C   0  0  1  0  0  0  0  0  0  0  0  0
   -5.2592   -3.1893   -3.7891 C   0  0  0  0  0  0  0  0  0  0  0  0
   -6.7213   -3.1959   -4.2549 C   0  0  0  0  0  0  0  0  0  0  0  0
   -7.4519   -2.5148   -3.0869 C   0  0  0  0  0  0  0  0  0  0  0  0
    1.2850    0.7748    1.0686 C   0  0  0  0  0  0  0  0  0  0  0  0
    2.7327    0.9662    0.7030 C   0  0  0  0  0  0  0  0  0  0  0  0
    3.3459    2.2188    1.3243 C   0  0  1  0  0  0  0  0  0  0  0  0
    3.0870    2.2174    2.8316 C   0  0  0  0  0  0  0  0  0  0  0  0
    4.3931    2.2023    3.6043 C   0  0  1  0  0  0  0  0  0  0  0  0
    5.1972    0.9707    3.2054 C   0  0  0  0  0  0  0  0  0  0  0  0
    5.4904    0.9911    1.6990 C   0  0  0  0  0  0  0  0  0  0  0  0
    4.8507    2.2319    1.0605 C   0  0  2  0  0  0  0  0  0  0  0  0
    5.4571    3.4814    1.7152 C   0  0  0  0  0  0  0  0  0  0  0  0
    5.2019    3.4463    3.2349 C   0  0  0  0  0  0  0  0  0  0  0  0
    0.7091   -0.3291    0.5937 N   0  0  0  0  0  0  0  0  0  0  0  0
   -3.9499   -1.0991   -1.0257 N   0  0  0  0  0  0  0  0  0  0  0  0
   -3.4383   -3.1575   -1.7860 O   0  0  0  0  0  0  0  0  0  0  0  0
   -6.4954   -1.8582   -2.3037 O   0  0  0  0  0  0  0  0  0  0  0  0
    0.6880    1.5962    1.7627 O   0  0  0  0  0  0  0  0  0  0  0  0
    2.2239   -1.7337    0.3107 H   0  0  0  0  0  0  0  0  0  0  0  0
    1.8438   -0.7723   -1.0978 H   0  0  0  0  0  0  0  0  0  0  0  0
    0.7591   -2.0447   -0.5893 H   0  0  0  0  0  0  0  0  0  0  0  0
   -1.0100   -0.0465    1.7080 H   0  0  0  0  0  0  0  0  0  0  0  0
   -0.7375   -1.6881    1.1743 H   0  0  0  0  0  0  0  0  0  0  0  0
   -0.2166   -0.6341   -1.8489 H   0  0  0  0  0  0  0  0  0  0  0  0
   -1.8373   -1.0952   -2.3107 H   0  0  0  0  0  0  0  0  0  0  0  0
   -0.8821   -2.1533   -1.2997 H   0  0  0  0  0  0  0  0  0  0  0  0
   -2.6244    1.1788   -1.3012 H   0  0  0  0  0  0  0  0  0  0  0  0
   -0.9469    1.4770   -0.9146 H   0  0  0  0  0  0  0  0  0  0  0  0
   -2.1595    1.5493    0.3417 H   0  0  0  0  0  0  0  0  0  0  0  0
   -3.4186   -0.5208    0.8759 H   0  0  0  0  0  0  0  0  0  0  0  0
   -2.8056   -2.0790    0.3754 H   0  0  0  0  0  0  0  0  0  0  0  0
   -4.5177   -0.3112   -1.1570 H   0  0  0  0  0  0  0  0  0  0  0  0
   -4.9594   -1.0911   -3.5017 H   0  0  0  0  0  0  0  0  0  0  0  0
   -4.5927   -3.1130   -4.6227 H   0  0  0  0  0  0  0  0  0  0  0  0
   -5.0321   -4.0728   -3.2299 H   0  0  0  0  0  0  0  0  0  0  0  0
   -6.8399   -2.6392   -5.1610 H   0  0  0  0  0  0  0  0  0  0  0  0
   -7.0750   -4.1952   -4.4008 H   0  0  0  0  0  0  0  0  0  0  0  0
   -7.9606   -3.2497   -2.4986 H   0  0  0  0  0  0  0  0  0  0  0  0
   -8.1600   -1.8070   -3.4646 H   0  0  0  0  0  0  0  0  0  0  0  0
    2.8079    1.0423   -0.3617 H   0  0  0  0  0  0  0  0  0  0  0  0
    3.2846    0.1137    1.0400 H   0  0  0  0  0  0  0  0  0  0  0  0
    2.9008    3.0885    0.8878 H   0  0  0  0  0  0  0  0  0  0  0  0
    2.5178    1.3486    3.0885 H   0  0  0  0  0  0  0  0  0  0  0  0
    2.5353    3.0962    3.0932 H   0  0  0  0  0  0  0  0  0  0  0  0
    4.1995    2.1901    4.6566 H   0  0  0  0  0  0  0  0  0  0  0  0
    6.1213    0.9627    3.7446 H   0  0  0  0  0  0  0  0  0  0  0  0
    4.6368    0.0909    3.4439 H   0  0  0  0  0  0  0  0  0  0  0  0
    6.5487    1.0177    1.5437 H   0  0  0  0  0  0  0  0  0  0  0  0
    5.0850    0.1102    1.2465 H   0  0  0  0  0  0  0  0  0  0  0  0
    5.0401    2.2413    0.0075 H   0  0  0  0  0  0  0  0  0  0  0  0
    6.5110    3.5031    1.5319 H   0  0  0  0  0  0  0  0  0  0  0  0
    5.0040    4.3567    1.2986 H   0  0  0  0  0  0  0  0  0  0  0  0
    4.6565    4.3209    3.5222 H   0  0  0  0  0  0  0  0  0  0  0  0
    6.1393    3.4246    3.7504 H   0  0  0  0  0  0  0  0  0  0  0  0
  1 22  1  0  0  0  0
  1 27  1  0  0  0  0
  1 28  1  0  0  0  0
  1 29  1  0  0  0  0
  2 22  1  0  0  0  0
  2  3  1  0  0  0  0
  2 30  1  0  0  0  0
  2 31  1  0  0  0  0
  3  4  1  0  0  0  0
  3  5  1  0  0  0  0
  3  6  1  0  0  0  0
  4 32  1  0  0  0  0
  4 33  1  0  0  0  0
  4 34  1  0  0  0  0
  5 35  1  0  0  0  0
  5 36  1  0  0  0  0
  5 37  1  0  0  0  0
  6 23  1  0  0  0  0
  6 38  1  0  0  0  0
  6 39  1  0  0  0  0
  7 23  1  0  0  0  0
  7  8  1  0  0  0  0
  7 24  2  0  0  0  0
  8  9  1  0  0  0  0
  8 25  1  0  0  0  0
  8 41  1  6  0  0  0
  9 10  1  0  0  0  0
  9 42  1  0  0  0  0
  9 43  1  0  0  0  0
 10 11  1  0  0  0  0
 10 44  1  0  0  0  0
 10 45  1  0  0  0  0
 11 25  1  0  0  0  0
 11 46  1  0  0  0  0
 11 47  1  0  0  0  0
 12 22  1  0  0  0  0
 12 13  1  0  0  0  0
 12 26  2  0  0  0  0
 13 14  1  0  0  0  0
 13 48  1  0  0  0  0
 13 49  1  0  0  0  0
 14 15  1  0  0  0  0
 14 19  1  0  0  0  0
 14 50  1  6  0  0  0
 15 16  1  0  0  0  0
 15 51  1  0  0  0  0
 15 52  1  0  0  0  0
 16 17  1  0  0  0  0
 16 21  1  0  0  0  0
 16 53  1  1  0  0  0
 17 18  1  0  0  0  0
 17 54  1  0  0  0  0
 17 55  1  0  0  0  0
 18 19  1  0  0  0  0
 18 56  1  0  0  0  0
 18 57  1  0  0  0  0
 19 20  1  0  0  0  0
 19 58  1  6  0  0  0
 20 21  1  0  0  0  0
 20 59  1  0  0  0  0
 20 60  1  0  0  0  0
 21 61  1  0  0  0  0
 21 62  1  0  0  0  0
 23 40  1  0  0  0  0
M  END
>  <score>
0.45269525051116943

$$$$
Z4459323158
 OpenBabel08202115463D

 37 37  0  0  0  0  0  0  0  0999 V2000
   -6.8896   -2.0599   -3.5152 C   0  0  0  0  0  0  0  0  0  0  0  0
   -4.7758   -1.4112   -2.5559 C   0  0  0  0  0  0  0  0  0  0  0  0
   -3.9426   -0.2530   -2.0906 C   0  0  0  0  0  0  0  0  0  0  0  0
   -2.3432    1.0175   -1.2570 C   0  0  0  0  0  0  0  0  0  0  0  0
   -1.1034    1.6475   -0.7457 C   0  0  0  0  0  0  0  0  0  0  0  0
    0.9934    1.2859    0.2513 C   0  0  0  0  0  0  0  0  0  0  0  0
    1.8858    0.1709    0.7744 C   0  0  0  0  0  0  0  0  0  0  0  0
    3.1518    0.7516    1.4462 C   0  0  0  0  0  0  0  0  0  0  0  0
    4.0688   -0.2697    2.1060 C   0  0  0  0  0  0  0  0  0  0  0  0
    6.2962   -0.7804    3.8312 C   0  0  0  0  0  0  0  0  0  0  0  0
   -2.6692   -0.2944   -1.5067 C   0  0  0  0  0  0  0  0  0  0  0  0
   -6.0571   -1.0226   -3.0099 O   0  0  0  0  0  0  0  0  0  0  0  0
   -0.8892    2.8322   -0.7455 O   0  0  0  0  0  0  0  0  0  0  0  0
   -0.2379    0.7409   -0.2784 O   0  0  0  0  0  0  0  0  0  0  0  0
    4.7512    1.3827    4.0594 O   0  0  0  0  0  0  0  0  0  0  0  0
    6.2519    1.1943    2.0641 O   0  0  0  0  0  0  0  0  0  0  0  0
   -4.3804    1.0044   -2.2040 N   0  0  0  0  0  0  0  0  0  0  0  0
   -3.3874    1.7684   -1.6811 N   0  0  0  0  0  0  0  0  0  0  0  0
    2.7669    1.6326    2.3805 F   0  0  0  0  0  0  0  0  0  0  0  0
    3.8598    1.4087    0.5166 F   0  0  0  0  0  0  0  0  0  0  0  0
    5.4018    0.6066    3.0512 S   0  0  0  0  0  0  0  0  0  0  0  0
   -6.4558   -2.4641   -4.4059 H   0  0  0  0  0  0  0  0  0  0  0  0
   -7.8578   -1.6629   -3.7388 H   0  0  0  0  0  0  0  0  0  0  0  0
   -6.9814   -2.8329   -2.7810 H   0  0  0  0  0  0  0  0  0  0  0  0
   -4.2633   -1.8991   -3.3585 H   0  0  0  0  0  0  0  0  0  0  0  0
   -4.8956   -2.0942   -1.7410 H   0  0  0  0  0  0  0  0  0  0  0  0
   -3.4220    2.7458   -1.6180 H   0  0  0  0  0  0  0  0  0  0  0  0
    0.7653    1.9591    1.0511 H   0  0  0  0  0  0  0  0  0  0  0  0
    1.5074    1.8140   -0.5244 H   0  0  0  0  0  0  0  0  0  0  0  0
    2.1781   -0.4566   -0.0416 H   0  0  0  0  0  0  0  0  0  0  0  0
    1.3415   -0.4068    1.4919 H   0  0  0  0  0  0  0  0  0  0  0  0
    4.5135   -0.8869    1.3535 H   0  0  0  0  0  0  0  0  0  0  0  0
    3.4990   -0.8785    2.7765 H   0  0  0  0  0  0  0  0  0  0  0  0
    5.6117   -1.3685    4.4061 H   0  0  0  0  0  0  0  0  0  0  0  0
    7.0612   -0.3954    4.4726 H   0  0  0  0  0  0  0  0  0  0  0  0
    6.7398   -1.3902    3.0722 H   0  0  0  0  0  0  0  0  0  0  0  0
   -2.0940   -1.1371   -1.3054 H   0  0  0  0  0  0  0  0  0  0  0  0
  1 12  1  0  0  0  0
  1 22  1  0  0  0  0
  1 23  1  0  0  0  0
  1 24  1  0  0  0  0
  2 12  1  0  0  0  0
  2  3  1  0  0  0  0
  2 25  1  0  0  0  0
  2 26  1  0  0  0  0
  3 11  1  0  0  0  0
  3 17  2  0  0  0  0
  4 18  1  0  0  0  0
  4  5  1  0  0  0  0
  4 11  2  0  0  0  0
  5 14  1  0  0  0  0
  5 13  2  0  0  0  0
  6 14  1  0  0  0  0
  6  7  1  0  0  0  0
  6 28  1  0  0  0  0
  6 29  1  0  0  0  0
  7  8  1  0  0  0  0
  7 30  1  0  0  0  0
  7 31  1  0  0  0  0
  8 19  1  0  0  0  0
  8 20  1  0  0  0  0
  8  9  1  0  0  0  0
  9 32  1  0  0  0  0
  9 33  1  0  0  0  0
 10 34  1  0  0  0  0
 10 35  1  0  0  0  0
 10 36  1  0  0  0  0
 11 37  1  0  0  0  0
 17 18  1  0  0  0  0
 18 27  1  0  0  0  0
 21  9  1  0  0  0  0
 21 10  1  0  0  0  0
 21 15  2  0  0  0  0
 21 16  2  0  0  0  0
M  END
>  <score>
0.45270049571990967

$$$$
Z4021126910
 OpenBabel08202115463D

 48 49  0  0  0  0  0  0  0  0999 V2000
    8.0381   -1.2044    1.8409 C   0  0  0  0  0  0  0  0  0  0  0  0
    6.7161    0.5016    2.8495 C   0  0  0  0  0  0  0  0  0  0  0  0
    5.3085    0.9687    3.1663 C   0  0  0  0  0  0  0  0  0  0  0  0
    2.8590    1.8469    2.4034 C   0  0  0  0  0  0  0  0  0  0  0  0
    1.8145    2.0636    1.3281 C   0  0  0  0  0  0  0  0  0  0  0  0
    1.7658    3.2664    0.6408 C   0  0  0  0  0  0  0  0  0  0  0  0
    0.8090    3.4654   -0.3365 C   0  0  0  0  0  0  0  0  0  0  0  0
   -0.0985    2.4604   -0.6331 C   0  0  0  0  0  0  0  0  0  0  0  0
   -0.0498    1.2612    0.0523 C   0  0  0  0  0  0  0  0  0  0  0  0
   -2.1215    0.4396   -0.9969 C   0  0  0  0  0  0  0  0  0  0  0  0
   -2.8401   -0.7838   -1.4059 C   0  0  0  0  0  0  0  0  0  0  0  0
   -4.3524   -0.8081   -1.2221 C   0  0  0  0  0  0  0  0  0  0  0  0
   -5.0115   -2.0437   -1.8130 C   0  0  1  0  0  0  0  0  0  0  0  0
   -6.5169   -1.9913   -1.6131 C   0  0  0  0  0  0  0  0  0  0  0  0
   -7.0102   -2.8707   -2.7497 C   0  0  0  0  0  0  0  0  0  0  0  0
   -6.0226   -2.5692   -3.8600 C   0  0  0  0  0  0  0  0  0  0  0  0
    0.9098    1.0614    1.0325 C   0  0  0  0  0  0  0  0  0  0  0  0
    6.7364   -0.7732    2.2209 O   0  0  0  0  0  0  0  0  0  0  0  0
    4.9899    2.1922    0.8653 O   0  0  0  0  0  0  0  0  0  0  0  0
   -2.5098    1.5438   -1.3757 O   0  0  0  0  0  0  0  0  0  0  0  0
   -4.8214   -2.0839   -3.2318 O   0  0  0  0  0  0  0  0  0  0  0  0
    4.3425    1.1057    1.6800 S   0  0  1  0  0  0  0  0  0  0  0  0
   -0.9978    0.2785   -0.2854 N   0  0  0  0  0  0  0  0  0  0  0  0
   -2.3678   -1.8699   -0.6895 F   0  0  0  0  0  0  0  0  0  0  0  0
   -2.5824   -1.0557   -2.7137 F   0  0  0  0  0  0  0  0  0  0  0  0
    7.9750   -2.1690    1.3820 H   0  0  0  0  0  0  0  0  0  0  0  0
    8.6617   -1.2625    2.7084 H   0  0  0  0  0  0  0  0  0  0  0  0
    8.4564   -0.5060    1.1465 H   0  0  0  0  0  0  0  0  0  0  0  0
    7.1754    1.2138    2.1962 H   0  0  0  0  0  0  0  0  0  0  0  0
    7.2720    0.4434    3.7619 H   0  0  0  0  0  0  0  0  0  0  0  0
    5.3551    1.9250    3.6441 H   0  0  0  0  0  0  0  0  0  0  0  0
    4.8440    0.2634    3.8233 H   0  0  0  0  0  0  0  0  0  0  0  0
    3.1124    2.7873    2.8464 H   0  0  0  0  0  0  0  0  0  0  0  0
    2.4656    1.1931    3.1535 H   0  0  0  0  0  0  0  0  0  0  0  0
    2.4492    4.0189    0.8606 H   0  0  0  0  0  0  0  0  0  0  0  0
    0.7699    4.3693   -0.8494 H   0  0  0  0  0  0  0  0  0  0  0  0
   -0.8158    2.6088   -1.3713 H   0  0  0  0  0  0  0  0  0  0  0  0
   -0.8153   -0.6287    0.0371 H   0  0  0  0  0  0  0  0  0  0  0  0
   -4.7658    0.0570   -1.6972 H   0  0  0  0  0  0  0  0  0  0  0  0
   -4.5674   -0.7771   -0.1744 H   0  0  0  0  0  0  0  0  0  0  0  0
   -4.6028   -2.9201   -1.3550 H   0  0  0  0  0  0  0  0  0  0  0  0
   -6.8877   -0.9917   -1.7044 H   0  0  0  0  0  0  0  0  0  0  0  0
   -6.7978   -2.3908   -0.6610 H   0  0  0  0  0  0  0  0  0  0  0  0
   -6.9802   -3.9050   -2.4776 H   0  0  0  0  0  0  0  0  0  0  0  0
   -8.0062   -2.6058   -3.0375 H   0  0  0  0  0  0  0  0  0  0  0  0
   -5.8127   -3.4585   -4.4169 H   0  0  0  0  0  0  0  0  0  0  0  0
   -6.4221   -1.8235   -4.5151 H   0  0  0  0  0  0  0  0  0  0  0  0
    0.9489    0.1575    1.5454 H   0  0  0  0  0  0  0  0  0  0  0  0
  1 18  1  0  0  0  0
  1 26  1  0  0  0  0
  1 27  1  0  0  0  0
  1 28  1  0  0  0  0
  2 18  1  0  0  0  0
  2  3  1  0  0  0  0
  2 29  1  0  0  0  0
  2 30  1  0  0  0  0
  3 22  1  0  0  0  0
  3 31  1  0  0  0  0
  3 32  1  0  0  0  0
  4  5  1  0  0  0  0
  4 33  1  0  0  0  0
  4 34  1  0  0  0  0
  5 17  1  0  0  0  0
  5  6  2  0  0  0  0
  6  7  1  0  0  0  0
  6 35  1  0  0  0  0
  7 36  1  0  0  0  0
  7  8  2  0  0  0  0
  8  9  1  0  0  0  0
  8 37  1  0  0  0  0
  9 23  1  0  0  0  0
  9 17  2  0  0  0  0
 10 23  1  0  0  0  0
 10 11  1  0  0  0  0
 10 20  2  0  0  0  0
 11 24  1  0  0  0  0
 11 25  1  0  0  0  0
 11 12  1  0  0  0  0
 12 13  1  0  0  0  0
 12 39  1  0  0  0  0
 12 40  1  0  0  0  0
 13 14  1  0  0  0  0
 13 21  1  0  0  0  0
 13 41  1  1  0  0  0
 14 15  1  0  0  0  0
 14 42  1  0  0  0  0
 14 43  1  0  0  0  0
 15 16  1  0  0  0  0
 15 44  1  0  0  0  0
 15 45  1  0  0  0  0
 16 21  1  0  0  0  0
 16 46  1  0  0  0  0
 16 47  1  0  0  0  0
 17 48  1  0  0  0  0
 22  4  1  0  0  0  0
 22 19  2  6  0  0  0
 23 38  1  0  0  0  0
M  END
>  <score>
0.45279669761657715

$$$$
PV-003992146309
 OpenBabel08202115463D

 52 55  0  0  0  0  0  0  0  0999 V2000
    5.4554    2.4228    3.6142 C   0  0  0  0  0  0  0  0  0  0  0  0
    6.0715    3.2799    1.4327 C   0  0  0  0  0  0  0  0  0  0  0  0
    4.8483    1.1887    1.5594 C   0  0  1  0  0  0  0  0  0  0  0  0
    4.0835    0.1805    2.4330 C   0  0  0  0  0  0  0  0  0  0  0  0
    2.7699    0.5386    1.6618 C   0  0  2  0  0  0  0  0  0  0  0  0
    1.9361   -0.6690    1.2251 C   0  0  0  0  0  0  0  0  0  0  0  0
    0.0173    0.8903    0.5917 C   0  0  0  0  0  0  0  0  0  0  0  0
   -0.4852    0.8231   -0.8565 C   0  0  2  0  0  0  0  0  0  0  0  0
   -1.8949    1.4271   -0.9266 C   0  0  0  0  0  0  0  0  0  0  0  0
   -2.7345    0.2407   -0.4316 C   0  0  0  0  0  0  0  0  0  0  0  0
   -2.8190   -1.7491   -1.9809 C   0  0  0  0  0  0  0  0  0  0  0  0
   -4.3135   -1.6467   -2.0665 C   0  0  0  0  0  0  0  0  0  0  0  0
   -6.2179   -2.8910   -2.8644 C   0  0  0  0  0  0  0  0  0  0  0  0
   -8.2998   -3.5020   -3.1953 C   0  0  0  0  0  0  0  0  0  0  0  0
   -7.0525   -3.7413   -3.6364 C   0  0  0  0  0  0  0  0  0  0  0  0
   -0.7099   -0.6771   -1.1060 C   0  0  1  0  0  0  0  0  0  0  0  0
   -0.3197   -1.3261    0.2281 C   0  0  0  0  0  0  0  0  0  0  0  0
    3.6651    1.1360    0.5571 C   0  0  0  0  0  0  0  0  0  0  0  0
    5.0611    2.5115    2.1903 N   0  0  0  0  0  0  0  0  0  0  0  0
    0.7068   -0.4033    0.7450 N   0  0  0  0  0  0  0  0  0  0  0  0
   -2.1669   -0.8392   -1.2604 N   0  0  0  0  0  0  0  0  0  0  0  0
   -6.9202   -2.1799   -2.0121 N   0  0  0  0  0  0  0  0  0  0  0  0
    2.4358   -1.7773    1.3402 O   0  0  0  0  0  0  0  0  0  0  0  0
   -2.2695   -2.6710   -2.5822 O   0  0  0  0  0  0  0  0  0  0  0  0
   -4.8771   -2.7009   -2.8625 O   0  0  0  0  0  0  0  0  0  0  0  0
   -8.2625   -2.5696   -2.2109 O   0  0  0  0  0  0  0  0  0  0  0  0
    5.6764    3.4017    3.9853 H   0  0  0  0  0  0  0  0  0  0  0  0
    6.3225    1.8026    3.7059 H   0  0  0  0  0  0  0  0  0  0  0  0
    4.6522    1.9998    4.1807 H   0  0  0  0  0  0  0  0  0  0  0  0
    6.0069    4.3143    1.6987 H   0  0  0  0  0  0  0  0  0  0  0  0
    5.8904    3.1696    0.3839 H   0  0  0  0  0  0  0  0  0  0  0  0
    7.0485    2.9119    1.6670 H   0  0  0  0  0  0  0  0  0  0  0  0
    5.7764    0.8250    1.1705 H   0  0  0  0  0  0  0  0  0  0  0  0
    4.4007   -0.8343    2.3130 H   0  0  0  0  0  0  0  0  0  0  0  0
    4.0631    0.4276    3.4739 H   0  0  0  0  0  0  0  0  0  0  0  0
    2.1400    1.2471    2.1579 H   0  0  0  0  0  0  0  0  0  0  0  0
    0.6932    1.7083    0.7296 H   0  0  0  0  0  0  0  0  0  0  0  0
   -0.7966    0.9795    1.2805 H   0  0  0  0  0  0  0  0  0  0  0  0
    0.1943    1.2654   -1.5560 H   0  0  0  0  0  0  0  0  0  0  0  0
   -2.1558    1.7052   -1.9263 H   0  0  0  0  0  0  0  0  0  0  0  0
   -1.9931    2.2759   -0.2826 H   0  0  0  0  0  0  0  0  0  0  0  0
   -3.7769    0.3838   -0.6257 H   0  0  0  0  0  0  0  0  0  0  0  0
   -2.5873    0.0586    0.6125 H   0  0  0  0  0  0  0  0  0  0  0  0
   -4.5712   -0.7058   -2.5060 H   0  0  0  0  0  0  0  0  0  0  0  0
   -4.7212   -1.7032   -1.0789 H   0  0  0  0  0  0  0  0  0  0  0  0
   -9.1612   -3.9614   -3.5539 H   0  0  0  0  0  0  0  0  0  0  0  0
   -6.7619   -4.4057   -4.3819 H   0  0  0  0  0  0  0  0  0  0  0  0
   -0.1422   -1.0506   -1.9327 H   0  0  0  0  0  0  0  0  0  0  0  0
   -1.1581   -1.3816    0.8906 H   0  0  0  0  0  0  0  0  0  0  0  0
    0.0824   -2.3063    0.0779 H   0  0  0  0  0  0  0  0  0  0  0  0
    3.8258    0.4848   -0.2766 H   0  0  0  0  0  0  0  0  0  0  0  0
    3.3459    2.0947    0.2052 H   0  0  0  0  0  0  0  0  0  0  0  0
  1 19  1  0  0  0  0
  1 27  1  0  0  0  0
  1 28  1  0  0  0  0
  1 29  1  0  0  0  0
  2 19  1  0  0  0  0
  2 30  1  0  0  0  0
  2 31  1  0  0  0  0
  2 32  1  0  0  0  0
  3 19  1  0  0  0  0
  3  4  1  0  0  0  0
  3 18  1  0  0  0  0
  3 33  1  6  0  0  0
  4  5  1  0  0  0  0
  4 34  1  0  0  0  0
  4 35  1  0  0  0  0
  5  6  1  0  0  0  0
  5 18  1  0  0  0  0
  5 36  1  1  0  0  0
  6 20  1  0  0  0  0
  6 23  2  0  0  0  0
  7 20  1  0  0  0  0
  7  8  1  0  0  0  0
  7 37  1  0  0  0  0
  7 38  1  0  0  0  0
  8  9  1  0  0  0  0
  8 16  1  0  0  0  0
  8 39  1  6  0  0  0
  9 10  1  0  0  0  0
  9 40  1  0  0  0  0
  9 41  1  0  0  0  0
 10 21  1  0  0  0  0
 10 42  1  0  0  0  0
 10 43  1  0  0  0  0
 11 21  1  0  0  0  0
 11 12  1  0  0  0  0
 11 24  2  0  0  0  0
 12 25  1  0  0  0  0
 12 44  1  0  0  0  0
 12 45  1  0  0  0  0
 13 25  1  0  0  0  0
 13 15  1  0  0  0  0
 13 22  2  0  0  0  0
 14 26  1  0  0  0  0
 14 46  1  0  0  0  0
 14 15  2  0  0  0  0
 15 47  1  0  0  0  0
 16 21  1  0  0  0  0
 16 17  1  0  0  0  0
 16 48  1  6  0  0  0
 17 20  1  0  0  0  0
 17 49  1  0  0  0  0
 17 50  1  0  0  0  0
 18 51  1  0  0  0  0
 18 52  1  0  0  0  0
 22 26  1  0  0  0  0
M  END
>  <score>
0.4528735876083374

$$$$
PV-003344192622
 OpenBabel08202115463D

 60 60  0  0  0  0  0  0  0  0999 V2000
    5.3379   -1.6335    4.1619 C   0  0  0  0  0  0  0  0  0  0  0  0
    5.2148    0.7311    3.9000 C   0  0  0  0  0  0  0  0  0  0  0  0
    5.4767    1.8501    2.8849 C   0  0  0  0  0  0  0  0  0  0  0  0
    6.9501    1.8334    2.4605 C   0  0  0  0  0  0  0  0  0  0  0  0
    5.1420    3.2038    3.5219 C   0  0  0  0  0  0  0  0  0  0  0  0
    4.5948    1.6409    1.6609 C   0  0  0  0  0  0  0  0  0  0  0  0
    3.1193    1.5545    1.9996 C   0  0  0  0  0  0  0  0  0  0  0  0
    0.8803    1.0177    1.1594 C   0  0  0  0  0  0  0  0  0  0  0  0
    0.1420    0.8427   -0.1576 C   0  0  0  0  0  0  0  0  0  0  0  0
   -1.3494    0.6051    0.0146 C   0  0  1  0  0  0  0  0  0  0  0  0
   -2.0369    1.7576    0.7285 C   0  0  0  0  0  0  0  0  0  0  0  0
   -2.6151   -0.7833   -1.5508 C   0  0  0  0  0  0  0  0  0  0  0  0
   -3.1537   -0.9094   -2.9508 C   0  0  0  0  0  0  0  0  0  0  0  0
   -3.8912   -2.2168   -3.1896 C   0  0  1  0  0  0  0  0  0  0  0  0
   -5.1895   -2.2329   -2.4195 C   0  0  0  0  0  0  0  0  0  0  0  0
   -7.5292   -2.2852   -3.0028 C   0  0  0  0  0  0  0  0  0  0  0  0
   -5.7762   -2.4986   -4.6455 C   0  0  0  0  0  0  0  0  0  0  0  0
   -4.2666   -2.3503   -4.6619 C   0  0  1  0  0  0  0  0  0  0  0  0
    5.7335   -0.4960    3.4041 O   0  0  0  0  0  0  0  0  0  0  0  0
    2.7198    1.7321    3.1386 O   0  0  0  0  0  0  0  0  0  0  0  0
   -2.7615   -1.6770   -0.7333 O   0  0  0  0  0  0  0  0  0  0  0  0
   -3.8794   -1.1851   -5.3916 O   0  0  0  0  0  0  0  0  0  0  0  0
    2.3008    1.2736    0.9733 N   0  0  0  0  0  0  0  0  0  0  0  0
   -1.9770    0.3576   -1.2749 N   0  0  0  0  0  0  0  0  0  0  0  0
   -6.1913   -1.8342   -3.4093 N   0  0  0  0  0  0  0  0  0  0  0  0
    5.8186   -2.5067    3.7727 H   0  0  0  0  0  0  0  0  0  0  0  0
    4.2765   -1.7527    4.0981 H   0  0  0  0  0  0  0  0  0  0  0  0
    5.6212   -1.4967    5.1846 H   0  0  0  0  0  0  0  0  0  0  0  0
    5.6942    0.9716    4.8259 H   0  0  0  0  0  0  0  0  0  0  0  0
    4.1610    0.6338    4.0580 H   0  0  0  0  0  0  0  0  0  0  0  0
    7.0304    0.8376    2.0773 H   0  0  0  0  0  0  0  0  0  0  0  0
    7.6030    1.9901    3.2936 H   0  0  0  0  0  0  0  0  0  0  0  0
    7.1522    2.5646    1.7059 H   0  0  0  0  0  0  0  0  0  0  0  0
    5.7191    3.3313    4.4138 H   0  0  0  0  0  0  0  0  0  0  0  0
    4.1002    3.2360    3.7638 H   0  0  0  0  0  0  0  0  0  0  0  0
    5.3730    3.9889    2.8326 H   0  0  0  0  0  0  0  0  0  0  0  0
    4.8880    0.7303    1.1815 H   0  0  0  0  0  0  0  0  0  0  0  0
    4.7428    2.4613    0.9902 H   0  0  0  0  0  0  0  0  0  0  0  0
    2.6728    1.2396    0.0673 H   0  0  0  0  0  0  0  0  0  0  0  0
    0.4495    1.8429    1.6870 H   0  0  0  0  0  0  0  0  0  0  0  0
    0.7657    0.1249    1.7380 H   0  0  0  0  0  0  0  0  0  0  0  0
    0.5618    0.0043   -0.6731 H   0  0  0  0  0  0  0  0  0  0  0  0
    0.2792    1.7275   -0.7436 H   0  0  0  0  0  0  0  0  0  0  0  0
   -1.4709   -0.2695    0.6188 H   0  0  0  0  0  0  0  0  0  0  0  0
   -1.9166    2.6543    0.1573 H   0  0  0  0  0  0  0  0  0  0  0  0
   -1.5989    1.8897    1.6958 H   0  0  0  0  0  0  0  0  0  0  0  0
   -3.0791    1.5399    0.8351 H   0  0  0  0  0  0  0  0  0  0  0  0
   -1.9300    1.0520   -1.9649 H   0  0  0  0  0  0  0  0  0  0  0  0
   -2.3350   -0.8499   -3.6373 H   0  0  0  0  0  0  0  0  0  0  0  0
   -3.8296   -0.0995   -3.1299 H   0  0  0  0  0  0  0  0  0  0  0  0
   -3.2721   -3.0362   -2.8892 H   0  0  0  0  0  0  0  0  0  0  0  0
   -5.1589   -1.5368   -1.6075 H   0  0  0  0  0  0  0  0  0  0  0  0
   -5.3961   -3.2127   -2.0424 H   0  0  0  0  0  0  0  0  0  0  0  0
   -8.2678   -1.8057   -3.6107 H   0  0  0  0  0  0  0  0  0  0  0  0
   -7.6939   -2.0325   -1.9762 H   0  0  0  0  0  0  0  0  0  0  0  0
   -7.6004   -3.3457   -3.1254 H   0  0  0  0  0  0  0  0  0  0  0  0
   -6.0554   -3.5314   -4.6327 H   0  0  0  0  0  0  0  0  0  0  0  0
   -6.2132   -2.0210   -5.4975 H   0  0  0  0  0  0  0  0  0  0  0  0
   -3.8048   -3.2129   -5.0950 H   0  0  0  0  0  0  0  0  0  0  0  0
   -4.2802   -0.4093   -4.9928 H   0  0  0  0  0  0  0  0  0  0  0  0
  1 19  1  0  0  0  0
  1 26  1  0  0  0  0
  1 27  1  0  0  0  0
  1 28  1  0  0  0  0
  2 19  1  0  0  0  0
  2  3  1  0  0  0  0
  2 29  1  0  0  0  0
  2 30  1  0  0  0  0
  3  4  1  0  0  0  0
  3  5  1  0  0  0  0
  3  6  1  0  0  0  0
  4 31  1  0  0  0  0
  4 32  1  0  0  0  0
  4 33  1  0  0  0  0
  5 34  1  0  0  0  0
  5 35  1  0  0  0  0
  5 36  1  0  0  0  0
  6  7  1  0  0  0  0
  6 37  1  0  0  0  0
  6 38  1  0  0  0  0
  7 23  1  0  0  0  0
  7 20  2  0  0  0  0
  8 23  1  0  0  0  0
  8  9  1  0  0  0  0
  8 40  1  0  0  0  0
  8 41  1  0  0  0  0
  9 10  1  0  0  0  0
  9 42  1  0  0  0  0
  9 43  1  0  0  0  0
 10 11  1  0  0  0  0
 10 24  1  0  0  0  0
 10 44  1  1  0  0  0
 11 45  1  0  0  0  0
 11 46  1  0  0  0  0
 11 47  1  0  0  0  0
 12 24  1  0  0  0  0
 12 13  1  0  0  0  0
 12 21  2  0  0  0  0
 13 14  1  0  0  0  0
 13 49  1  0  0  0  0
 13 50  1  0  0  0  0
 14 15  1  0  0  0  0
 14 18  1  0  0  0  0
 14 51  1  1  0  0  0
 15 25  1  0  0  0  0
 15 52  1  0  0  0  0
 15 53  1  0  0  0  0
 16 25  1  0  0  0  0
 16 54  1  0  0  0  0
 16 55  1  0  0  0  0
 16 56  1  0  0  0  0
 17 25  1  0  0  0  0
 17 18  1  0  0  0  0
 17 57  1  0  0  0  0
 17 58  1  0  0  0  0
 18 22  1  0  0  0  0
 18 59  1  6  0  0  0
 22 60  1  0  0  0  0
 23 39  1  0  0  0  0
 24 48  1  0  0  0  0
M  END
>  <score>
0.45288246870040894

$$$$
PV-003217392174
 OpenBabel08202115463D

 54 53  0  0  0  0  0  0  0  0999 V2000
    5.2467    2.6375    3.9384 C   0  0  0  0  0  0  0  0  0  0  0  0
    5.6496    1.1998    3.6535 C   0  0  0  0  0  0  0  0  0  0  0  0
    4.6949    0.4814    2.7138 C   0  0  1  0  0  0  0  0  0  0  0  0
    4.0698   -0.7101    3.4208 C   0  0  0  0  0  0  0  0  0  0  0  0
    3.6065    1.4129    2.1708 C   0  0  2  0  0  0  0  0  0  0  0  0
    2.7390    0.6422    1.1838 C   0  0  0  0  0  0  0  0  0  0  0  0
    1.2319    2.5955    1.2279 C   0  0  0  0  0  0  0  0  0  0  0  0
    0.7419    0.5933   -0.1665 C   0  0  0  0  0  0  0  0  0  0  0  0
   -0.7310    0.8775    0.0791 C   0  0  0  0  0  0  0  0  0  0  0  0
   -1.9505    0.9282   -2.1055 C   0  0  0  0  0  0  0  0  0  0  0  0
   -2.0771   -1.0488   -0.6727 C   0  0  0  0  0  0  0  0  0  0  0  0
   -2.9307   -1.6810   -1.7642 C   0  0  1  0  0  0  0  0  0  0  0  0
   -2.9025   -3.2124   -1.6666 C   0  0  0  0  0  0  0  0  0  0  0  0
   -5.2537   -2.2008   -3.1481 C   0  0  0  0  0  0  0  0  0  0  0  0
   -4.4733   -1.9592   -4.4299 C   0  0  0  0  0  0  0  0  0  0  0  0
   -6.7476   -2.0390   -3.3617 C   0  0  0  0  0  0  0  0  0  0  0  0
    4.1658    2.5904    1.6012 O   0  0  0  0  0  0  0  0  0  0  0  0
    3.0709   -0.4696    0.7746 O   0  0  0  0  0  0  0  0  0  0  0  0
   -1.8301   -1.6570    0.3653 O   0  0  0  0  0  0  0  0  0  0  0  0
    1.6071    1.2541    0.8007 N   0  0  0  0  0  0  0  0  0  0  0  0
   -1.6019    0.1966   -0.8807 N   0  0  0  0  0  0  0  0  0  0  0  0
   -4.6119   -1.0464   -1.8752 S   0  0  0  0  0  0  0  0  0  0  0  0
    5.5577    3.1699    3.0640 H   0  0  0  0  0  0  0  0  0  0  0  0
    5.7481    3.0080    4.8081 H   0  0  0  0  0  0  0  0  0  0  0  0
    4.1884    2.7161    4.0756 H   0  0  0  0  0  0  0  0  0  0  0  0
    5.6793    0.6658    4.5802 H   0  0  0  0  0  0  0  0  0  0  0  0
    6.6238    1.2018    3.2110 H   0  0  0  0  0  0  0  0  0  0  0  0
    5.2601    0.1152    1.8824 H   0  0  0  0  0  0  0  0  0  0  0  0
    3.9118   -1.5004    2.7171 H   0  0  0  0  0  0  0  0  0  0  0  0
    3.1323   -0.4199    3.8473 H   0  0  0  0  0  0  0  0  0  0  0  0
    4.7252   -1.0487    4.1959 H   0  0  0  0  0  0  0  0  0  0  0  0
    2.9844    1.6919    2.9955 H   0  0  0  0  0  0  0  0  0  0  0  0
    3.5279    2.9935    1.0077 H   0  0  0  0  0  0  0  0  0  0  0  0
    0.3401    2.5464    1.8170 H   0  0  0  0  0  0  0  0  0  0  0  0
    1.0577    3.2078    0.3679 H   0  0  0  0  0  0  0  0  0  0  0  0
    2.0225    3.0176    1.8126 H   0  0  0  0  0  0  0  0  0  0  0  0
    0.9022   -0.4628   -0.1046 H   0  0  0  0  0  0  0  0  0  0  0  0
    0.9985    0.9367   -1.1469 H   0  0  0  0  0  0  0  0  0  0  0  0
   -0.8941    1.9322    0.0018 H   0  0  0  0  0  0  0  0  0  0  0  0
   -0.9839    0.5482    1.0652 H   0  0  0  0  0  0  0  0  0  0  0  0
   -1.2032    1.6676   -2.3048 H   0  0  0  0  0  0  0  0  0  0  0  0
   -2.8994    1.4059   -1.9775 H   0  0  0  0  0  0  0  0  0  0  0  0
   -2.0029    0.2440   -2.9266 H   0  0  0  0  0  0  0  0  0  0  0  0
   -2.4880   -1.4189   -2.7024 H   0  0  0  0  0  0  0  0  0  0  0  0
   -1.8875   -3.5504   -1.6464 H   0  0  0  0  0  0  0  0  0  0  0  0
   -3.4013   -3.6328   -2.5148 H   0  0  0  0  0  0  0  0  0  0  0  0
   -3.3991   -3.5216   -0.7707 H   0  0  0  0  0  0  0  0  0  0  0  0
   -5.0485   -3.1861   -2.7849 H   0  0  0  0  0  0  0  0  0  0  0  0
   -4.9658   -2.4468   -5.2452 H   0  0  0  0  0  0  0  0  0  0  0  0
   -3.4839   -2.3527   -4.3243 H   0  0  0  0  0  0  0  0  0  0  0  0
   -4.4209   -0.9079   -4.6225 H   0  0  0  0  0  0  0  0  0  0  0  0
   -7.1031   -2.8181   -4.0031 H   0  0  0  0  0  0  0  0  0  0  0  0
   -6.9422   -1.0888   -3.8134 H   0  0  0  0  0  0  0  0  0  0  0  0
   -7.2506   -2.0961   -2.4190 H   0  0  0  0  0  0  0  0  0  0  0  0
  1  2  1  0  0  0  0
  1 23  1  0  0  0  0
  1 24  1  0  0  0  0
  1 25  1  0  0  0  0
  2  3  1  0  0  0  0
  2 26  1  0  0  0  0
  2 27  1  0  0  0  0
  3  4  1  0  0  0  0
  3  5  1  0  0  0  0
  3 28  1  6  0  0  0
  4 29  1  0  0  0  0
  4 30  1  0  0  0  0
  4 31  1  0  0  0  0
  5 17  1  0  0  0  0
  5  6  1  0  0  0  0
  5 32  1  1  0  0  0
  6 20  1  0  0  0  0
  6 18  2  0  0  0  0
  7 20  1  0  0  0  0
  7 34  1  0  0  0  0
  7 35  1  0  0  0  0
  7 36  1  0  0  0  0
  8 20  1  0  0  0  0
  8  9  1  0  0  0  0
  8 37  1  0  0  0  0
  8 38  1  0  0  0  0
  9 21  1  0  0  0  0
  9 39  1  0  0  0  0
  9 40  1  0  0  0  0
 10 21  1  0  0  0  0
 10 41  1  0  0  0  0
 10 42  1  0  0  0  0
 10 43  1  0  0  0  0
 11 21  1  0  0  0  0
 11 12  1  0  0  0  0
 11 19  2  0  0  0  0
 12 13  1  0  0  0  0
 12 22  1  0  0  0  0
 12 44  1  6  0  0  0
 13 45  1  0  0  0  0
 13 46  1  0  0  0  0
 13 47  1  0  0  0  0
 14 22  1  0  0  0  0
 14 15  1  0  0  0  0
 14 16  1  0  0  0  0
 14 48  1  0  0  0  0
 15 49  1  0  0  0  0
 15 50  1  0  0  0  0
 15 51  1  0  0  0  0
 16 52  1  0  0  0  0
 16 53  1  0  0  0  0
 16 54  1  0  0  0  0
 17 33  1  0  0  0  0
M  END
>  <score>
0.45289015769958496

$$$$
PV-003912859457
 OpenBabel08202115463D

 59 62  0  0  0  0  0  0  0  0999 V2000
    1.8945    1.9153    0.1894 O   0  0  0  0  0  0  0  0  0  0  0  0
   -4.5275   -1.0725   -0.1963 O   0  0  0  0  0  0  0  0  0  0  0  0
   -6.2334   -2.8250   -1.5857 O   0  0  0  0  0  0  0  0  0  0  0  0
    1.7186    0.8712    0.8118 C   0  0  0  0  0  0  0  0  0  0  0  0
    2.8410    0.2144    1.5673 C   0  0  0  0  0  0  0  0  0  0  0  0
    4.2110    0.8556    1.3891 C   0  0  0  0  0  0  0  0  0  0  0  0
    5.2373    0.3723    2.3978 C   0  0  0  0  0  0  0  0  0  0  0  0
    6.5617    2.4028    2.1207 C   0  0  0  0  0  0  0  0  0  0  0  0
    6.7292    2.8044    3.5640 C   0  0  0  0  0  0  0  0  0  0  0  0
    7.3542    1.5922    4.2540 C   0  0  0  0  0  0  0  0  0  0  0  0
    7.5452    0.5021    3.2403 C   0  0  0  0  0  0  0  0  0  0  0  0
   -0.7127    0.7777    0.2902 C   0  0  0  0  0  0  0  0  0  0  0  0
   -1.5002   -0.1955   -0.5783 C   0  0  0  0  0  0  0  0  0  0  0  0
   -2.6248    0.5695   -1.2571 C   0  0  0  0  0  0  0  0  0  0  0  0
   -4.4170   -1.0762   -1.4214 C   0  0  0  0  0  0  0  0  0  0  0  0
   -5.2996   -1.9472   -2.2732 C   0  0  1  0  0  0  0  0  0  0  0  0
   -4.5508   -2.8762   -3.2768 C   0  0  0  0  0  0  0  0  0  0  0  0
   -5.6141   -3.2141   -4.3546 C   0  0  0  0  0  0  0  0  0  0  0  0
   -6.8972   -2.4767   -3.8561 C   0  0  1  0  0  0  0  0  0  0  0  0
   -7.2522   -3.2142   -2.5265 C   0  0  0  0  0  0  0  0  0  0  0  0
   -6.2588   -1.1755   -3.2460 C   0  0  0  0  0  0  0  0  0  0  0  0
   -0.7430    2.2107   -0.1395 C   0  0  0  0  0  0  0  0  0  0  0  0
   -1.5324    1.7740    1.0547 C   0  0  0  0  0  0  0  0  0  0  0  0
    6.5894    0.9071    2.1293 N   0  0  0  0  0  0  0  0  0  0  0  0
    0.5330    0.2440    0.8668 N   0  0  0  0  0  0  0  0  0  0  0  0
   -3.5028   -0.3011   -2.0410 N   0  0  0  0  0  0  0  0  0  0  0  0
    2.9076   -0.8026    1.2413 H   0  0  0  0  0  0  0  0  0  0  0  0
    2.5973    0.2403    2.6089 H   0  0  0  0  0  0  0  0  0  0  0  0
    4.1057    1.9153    1.4934 H   0  0  0  0  0  0  0  0  0  0  0  0
    4.5673    0.6270    0.4065 H   0  0  0  0  0  0  0  0  0  0  0  0
    5.2775   -0.6963    2.3614 H   0  0  0  0  0  0  0  0  0  0  0  0
    4.9323    0.6851    3.3745 H   0  0  0  0  0  0  0  0  0  0  0  0
    7.3633    2.7902    1.5272 H   0  0  0  0  0  0  0  0  0  0  0  0
    5.6286    2.7593    1.7371 H   0  0  0  0  0  0  0  0  0  0  0  0
    5.7799    3.0351    4.0006 H   0  0  0  0  0  0  0  0  0  0  0  0
    7.3747    3.6540    3.6433 H   0  0  0  0  0  0  0  0  0  0  0  0
    6.7063    1.2487    5.0332 H   0  0  0  0  0  0  0  0  0  0  0  0
    8.3011    1.8649    4.6711 H   0  0  0  0  0  0  0  0  0  0  0  0
    8.5556    0.4748    2.8890 H   0  0  0  0  0  0  0  0  0  0  0  0
    7.2824   -0.4524    3.6463 H   0  0  0  0  0  0  0  0  0  0  0  0
    0.4939   -0.6243    1.3195 H   0  0  0  0  0  0  0  0  0  0  0  0
   -1.9094   -0.9740    0.0311 H   0  0  0  0  0  0  0  0  0  0  0  0
   -0.8558   -0.6224   -1.3181 H   0  0  0  0  0  0  0  0  0  0  0  0
   -2.1964    1.3015   -1.9095 H   0  0  0  0  0  0  0  0  0  0  0  0
   -3.2089    1.0587   -0.5058 H   0  0  0  0  0  0  0  0  0  0  0  0
   -3.4264   -0.3209   -3.0178 H   0  0  0  0  0  0  0  0  0  0  0  0
   -4.2108   -3.7654   -2.7884 H   0  0  0  0  0  0  0  0  0  0  0  0
   -3.7170   -2.3676   -3.7138 H   0  0  0  0  0  0  0  0  0  0  0  0
   -5.3134   -2.8489   -5.3144 H   0  0  0  0  0  0  0  0  0  0  0  0
   -5.7786   -4.2700   -4.4098 H   0  0  0  0  0  0  0  0  0  0  0  0
   -7.6877   -2.3414   -4.5644 H   0  0  0  0  0  0  0  0  0  0  0  0
   -7.2407   -4.2741   -2.6725 H   0  0  0  0  0  0  0  0  0  0  0  0
   -8.2177   -2.9122   -2.1779 H   0  0  0  0  0  0  0  0  0  0  0  0
   -5.7353   -0.5871   -3.9702 H   0  0  0  0  0  0  0  0  0  0  0  0
   -6.9695   -0.5616   -2.7331 H   0  0  0  0  0  0  0  0  0  0  0  0
   -1.2475    2.4877   -1.0415 H   0  0  0  0  0  0  0  0  0  0  0  0
    0.1235    2.8254   -0.0117 H   0  0  0  0  0  0  0  0  0  0  0  0
   -1.2297    2.0756    2.0356 H   0  0  0  0  0  0  0  0  0  0  0  0
   -2.6007    1.7379    1.0058 H   0  0  0  0  0  0  0  0  0  0  0  0
  4  5  1  0  0  0  0
  4 25  1  0  0  0  0
  4  1  2  0  0  0  0
  5  6  1  0  0  0  0
  5 27  1  0  0  0  0
  5 28  1  0  0  0  0
  6  7  1  0  0  0  0
  6 29  1  0  0  0  0
  6 30  1  0  0  0  0
  7 24  1  0  0  0  0
  7 31  1  0  0  0  0
  7 32  1  0  0  0  0
  8 24  1  0  0  0  0
  8  9  1  0  0  0  0
  8 33  1  0  0  0  0
  8 34  1  0  0  0  0
  9 10  1  0  0  0  0
  9 35  1  0  0  0  0
  9 36  1  0  0  0  0
 10 11  1  0  0  0  0
 10 37  1  0  0  0  0
 10 38  1  0  0  0  0
 11 24  1  0  0  0  0
 11 39  1  0  0  0  0
 11 40  1  0  0  0  0
 12 25  1  0  0  0  0
 12 13  1  0  0  0  0
 12 22  1  0  0  0  0
 12 23  1  0  0  0  0
 13 14  1  0  0  0  0
 13 42  1  0  0  0  0
 13 43  1  0  0  0  0
 14 26  1  0  0  0  0
 14 44  1  0  0  0  0
 14 45  1  0  0  0  0
 15 26  1  0  0  0  0
 15  2  2  0  0  0  0
 16 15  1  1  0  0  0
 16 17  1  0  0  0  0
 16  3  1  0  0  0  0
 16 21  1  0  0  0  0
 17 18  1  0  0  0  0
 17 47  1  0  0  0  0
 17 48  1  0  0  0  0
 18 19  1  0  0  0  0
 18 49  1  0  0  0  0
 18 50  1  0  0  0  0
 19 20  1  0  0  0  0
 19 21  1  0  0  0  0
 19 51  1  6  0  0  0
 20  3  1  0  0  0  0
 20 52  1  0  0  0  0
 20 53  1  0  0  0  0
 21 54  1  0  0  0  0
 21 55  1  0  0  0  0
 22 23  1  0  0  0  0
 22 56  1  0  0  0  0
 22 57  1  0  0  0  0
 23 58  1  0  0  0  0
 23 59  1  0  0  0  0
 25 41  1  0  0  0  0
 26 46  1  0  0  0  0
M  END
>  <score>
0.45297235250473022

$$$$
PV-004028700786
 OpenBabel08202115463D

 58 60  0  0  0  0  0  0  0  0999 V2000
    0.4627    1.8049   -0.8203 C   0  0  0  0  0  0  0  0  0  0  0  0
    0.0908    0.4409   -0.2620 C   0  0  1  0  0  0  0  0  0  0  0  0
    0.6135    0.2352    1.1381 C   0  0  0  0  0  0  0  0  0  0  0  0
    2.5739    1.5784    1.7665 C   0  0  0  0  0  0  0  0  0  0  0  0
    4.0572    1.5890    1.9567 C   0  0  1  0  0  0  0  0  0  0  0  0
    4.5157    2.9164    2.5304 C   0  0  0  0  0  0  0  0  0  0  0  0
    5.6774    2.5432    3.4456 C   0  0  0  0  0  0  0  0  0  0  0  0
    5.7851    1.0382    3.3992 C   0  0  2  0  0  0  0  0  0  0  0  0
    6.8560    0.6009    2.4024 C   0  0  0  0  0  0  0  0  0  0  0  0
    3.5180    0.6000    4.0862 C   0  0  0  0  0  0  0  0  0  0  0  0
   -1.9920   -0.6868   -1.0310 C   0  0  0  0  0  0  0  0  0  0  0  0
   -3.4907   -0.6089   -1.1300 C   0  0  0  0  0  0  0  0  0  0  0  0
   -4.1114   -1.8483   -1.7536 C   0  0  0  0  0  0  0  0  0  0  0  0
   -5.6465   -1.8470   -1.7802 C   0  0  0  0  0  0  0  0  0  0  0  0
   -5.6607   -2.0846   -3.2622 C   0  0  0  0  0  0  0  0  0  0  0  0
   -6.5568   -1.2776   -4.2215 C   0  0  0  0  0  0  0  0  0  0  0  0
   -6.9577   -2.6092   -5.0180 C   0  0  0  0  0  0  0  0  0  0  0  0
   -6.2675   -3.3506   -3.9206 C   0  0  0  0  0  0  0  0  0  0  0  0
   -4.1348   -1.8450   -3.2788 C   0  0  0  0  0  0  0  0  0  0  0  0
    2.0557    0.4368    1.2882 N   0  0  0  0  0  0  0  0  0  0  0  0
    8.1036    0.5703    2.8870 N   0  0  0  0  0  0  0  0  0  0  0  0
    4.4579    0.6032    2.9615 N   0  0  0  0  0  0  0  0  0  0  0  0
   -1.3549    0.2517   -0.3004 N   0  0  0  0  0  0  0  0  0  0  0  0
    1.8896    2.5619    2.0364 O   0  0  0  0  0  0  0  0  0  0  0  0
    6.5565    0.2404    1.2760 O   0  0  0  0  0  0  0  0  0  0  0  0
   -1.3676   -1.5810   -1.6004 O   0  0  0  0  0  0  0  0  0  0  0  0
    0.1019    1.8906   -1.8240 H   0  0  0  0  0  0  0  0  0  0  0  0
    1.5271    1.9146   -0.8136 H   0  0  0  0  0  0  0  0  0  0  0  0
    0.0210    2.5698   -0.2163 H   0  0  0  0  0  0  0  0  0  0  0  0
    0.5416   -0.3000   -0.8887 H   0  0  0  0  0  0  0  0  0  0  0  0
    0.3844   -0.7669    1.4354 H   0  0  0  0  0  0  0  0  0  0  0  0
    0.1116    0.9234    1.7857 H   0  0  0  0  0  0  0  0  0  0  0  0
    2.6639   -0.2871    1.0304 H   0  0  0  0  0  0  0  0  0  0  0  0
    4.5387    1.3939    1.0213 H   0  0  0  0  0  0  0  0  0  0  0  0
    4.8414    3.5744    1.7521 H   0  0  0  0  0  0  0  0  0  0  0  0
    3.7288    3.3822    3.0861 H   0  0  0  0  0  0  0  0  0  0  0  0
    5.4813    2.8700    4.4454 H   0  0  0  0  0  0  0  0  0  0  0  0
    6.5839    2.9906    3.0949 H   0  0  0  0  0  0  0  0  0  0  0  0
    6.0151    0.6432    4.3667 H   0  0  0  0  0  0  0  0  0  0  0  0
    8.2694    0.7892    3.8277 H   0  0  0  0  0  0  0  0  0  0  0  0
    8.8511    0.3290    2.3009 H   0  0  0  0  0  0  0  0  0  0  0  0
    3.5501    1.5481    4.5812 H   0  0  0  0  0  0  0  0  0  0  0  0
    3.7900   -0.1715    4.7759 H   0  0  0  0  0  0  0  0  0  0  0  0
    2.5277    0.4212    3.7226 H   0  0  0  0  0  0  0  0  0  0  0  0
   -1.9050    0.8513    0.2457 H   0  0  0  0  0  0  0  0  0  0  0  0
   -3.7488    0.2394   -1.7289 H   0  0  0  0  0  0  0  0  0  0  0  0
   -3.8911   -0.4861   -0.1454 H   0  0  0  0  0  0  0  0  0  0  0  0
   -3.6759   -2.7234   -1.3184 H   0  0  0  0  0  0  0  0  0  0  0  0
   -6.0880   -2.6393   -1.2126 H   0  0  0  0  0  0  0  0  0  0  0  0
   -6.0817   -0.9137   -1.4893 H   0  0  0  0  0  0  0  0  0  0  0  0
   -7.3825   -0.7967   -3.7400 H   0  0  0  0  0  0  0  0  0  0  0  0
   -6.0235   -0.5637   -4.8137 H   0  0  0  0  0  0  0  0  0  0  0  0
   -8.0095   -2.7907   -5.0933 H   0  0  0  0  0  0  0  0  0  0  0  0
   -6.5078   -2.7104   -5.9835 H   0  0  0  0  0  0  0  0  0  0  0  0
   -6.9463   -3.8707   -3.2774 H   0  0  0  0  0  0  0  0  0  0  0  0
   -5.5240   -4.0309   -4.2802 H   0  0  0  0  0  0  0  0  0  0  0  0
   -3.8447   -0.9130   -3.7170 H   0  0  0  0  0  0  0  0  0  0  0  0
   -3.5738   -2.6395   -3.7249 H   0  0  0  0  0  0  0  0  0  0  0  0
  1  2  1  0  0  0  0
  1 27  1  0  0  0  0
  1 28  1  0  0  0  0
  1 29  1  0  0  0  0
  2  3  1  0  0  0  0
  2 23  1  0  0  0  0
  2 30  1  6  0  0  0
  3 20  1  0  0  0  0
  3 31  1  0  0  0  0
  3 32  1  0  0  0  0
  4 20  1  0  0  0  0
  4  5  1  0  0  0  0
  4 24  2  0  0  0  0
  5  6  1  0  0  0  0
  5 22  1  0  0  0  0
  5 34  1  6  0  0  0
  6  7  1  0  0  0  0
  6 35  1  0  0  0  0
  6 36  1  0  0  0  0
  7  8  1  0  0  0  0
  7 37  1  0  0  0  0
  7 38  1  0  0  0  0
  8  9  1  0  0  0  0
  8 22  1  0  0  0  0
  8 39  1  1  0  0  0
  9 21  1  0  0  0  0
  9 25  2  0  0  0  0
 10 22  1  0  0  0  0
 10 42  1  0  0  0  0
 10 43  1  0  0  0  0
 10 44  1  0  0  0  0
 11 23  1  0  0  0  0
 11 12  1  0  0  0  0
 11 26  2  0  0  0  0
 12 13  1  0  0  0  0
 12 46  1  0  0  0  0
 12 47  1  0  0  0  0
 13 14  1  0  0  0  0
 13 19  1  0  0  0  0
 13 48  1  0  0  0  0
 14 15  1  0  0  0  0
 14 49  1  0  0  0  0
 14 50  1  0  0  0  0
 15 16  1  0  0  0  0
 15 18  1  0  0  0  0
 15 19  1  0  0  0  0
 16 17  1  0  0  0  0
 16 51  1  0  0  0  0
 16 52  1  0  0  0  0
 17 18  1  0  0  0  0
 17 53  1  0  0  0  0
 17 54  1  0  0  0  0
 18 55  1  0  0  0  0
 18 56  1  0  0  0  0
 19 57  1  0  0  0  0
 19 58  1  0  0  0  0
 20 33  1  0  0  0  0
 21 40  1  0  0  0  0
 21 41  1  0  0  0  0
 23 45  1  0  0  0  0
M  END
>  <score>
0.45304322242736816

$$$$
PV-002827009604
 OpenBabel08202115463D

 54 55  0  0  0  0  0  0  0  0999 V2000
   -4.6606   -3.4456   -2.5401 C   0  0  0  0  0  0  0  0  0  0  0  0
   -6.7560   -2.4317   -3.4202 C   0  0  0  0  0  0  0  0  0  0  0  0
   -4.8947   -1.0263   -2.6741 C   0  0  0  0  0  0  0  0  0  0  0  0
   -3.5043   -0.9983   -2.1076 C   0  0  1  0  0  0  0  0  0  0  0  0
   -2.7457    0.1771   -2.7137 C   0  0  0  0  0  0  0  0  0  0  0  0
   -1.3211    0.3589   -2.0835 C   0  0  0  0  0  0  0  0  0  0  0  0
   -1.4091    0.4221   -0.5565 C   0  0  1  0  0  0  0  0  0  0  0  0
    0.3589    1.1754    1.0612 C   0  0  0  0  0  0  0  0  0  0  0  0
    2.3483    1.7376    2.3675 C   0  0  0  0  0  0  0  0  0  0  0  0
    3.8354    1.4939    2.4380 C   0  0  0  0  0  0  0  0  0  0  0  0
    4.4427    2.3544    3.5511 C   0  0  0  0  0  0  0  0  0  0  0  0
    4.4678    1.8862    1.1044 C   0  0  0  0  0  0  0  0  0  0  0  0
    5.9374    1.4750    1.0880 C   0  0  0  0  0  0  0  0  0  0  0  0
    5.5754   -0.2862    2.6583 C   0  0  0  0  0  0  0  0  0  0  0  0
    4.0819    0.0327    2.7533 C   0  0  0  0  0  0  0  0  0  0  0  0
   -2.1756   -0.7660    0.0417 C   0  0  0  0  0  0  0  0  0  0  0  0
   -3.5920   -0.8804   -0.5509 C   0  0  0  0  0  0  0  0  0  0  0  0
   -5.4196   -2.2459   -2.8718 N   0  0  0  0  0  0  0  0  0  0  0  0
   -0.0517    0.4271   -0.0090 N   0  0  0  0  0  0  0  0  0  0  0  0
    1.6806    1.1008    1.2422 N   0  0  0  0  0  0  0  0  0  0  0  0
   -5.4980    0.0115   -2.9340 O   0  0  0  0  0  0  0  0  0  0  0  0
   -0.3879    1.8328    1.7675 O   0  0  0  0  0  0  0  0  0  0  0  0
    3.6795    3.1142    4.1696 O   0  0  0  0  0  0  0  0  0  0  0  0
    5.6652    2.1726    3.8050 O   0  0  0  0  0  0  0  0  0  0  0  0
    6.0703    0.0862    1.3625 O   0  0  0  0  0  0  0  0  0  0  0  0
   -3.8116   -3.5213   -3.1869 H   0  0  0  0  0  0  0  0  0  0  0  0
   -5.2826   -4.3071   -2.6662 H   0  0  0  0  0  0  0  0  0  0  0  0
   -4.3306   -3.3890   -1.5239 H   0  0  0  0  0  0  0  0  0  0  0  0
   -6.6009   -3.3698   -3.9109 H   0  0  0  0  0  0  0  0  0  0  0  0
   -7.0195   -1.6563   -4.1088 H   0  0  0  0  0  0  0  0  0  0  0  0
   -7.4998   -2.4967   -2.6538 H   0  0  0  0  0  0  0  0  0  0  0  0
   -2.9976   -1.9064   -2.3597 H   0  0  0  0  0  0  0  0  0  0  0  0
   -3.3102    1.0712   -2.5500 H   0  0  0  0  0  0  0  0  0  0  0  0
   -2.6374    0.0105   -3.7651 H   0  0  0  0  0  0  0  0  0  0  0  0
   -0.7041   -0.4685   -2.3658 H   0  0  0  0  0  0  0  0  0  0  0  0
   -0.8891    1.2674   -2.4483 H   0  0  0  0  0  0  0  0  0  0  0  0
   -1.9093    1.3265   -0.2796 H   0  0  0  0  0  0  0  0  0  0  0  0
    0.6133   -0.1486   -0.4412 H   0  0  0  0  0  0  0  0  0  0  0  0
    2.2191    0.5997    0.5946 H   0  0  0  0  0  0  0  0  0  0  0  0
    1.9069    1.3680    3.2695 H   0  0  0  0  0  0  0  0  0  0  0  0
    2.1865    2.7930    2.2972 H   0  0  0  0  0  0  0  0  0  0  0  0
    6.1829    2.8780    3.4099 H   0  0  0  0  0  0  0  0  0  0  0  0
    4.3941    2.9457    0.9746 H   0  0  0  0  0  0  0  0  0  0  0  0
    3.9520    1.3920    0.3078 H   0  0  0  0  0  0  0  0  0  0  0  0
    6.4670    2.0328    1.8318 H   0  0  0  0  0  0  0  0  0  0  0  0
    6.3504    1.6840    0.1234 H   0  0  0  0  0  0  0  0  0  0  0  0
    5.7248   -1.3351    2.8076 H   0  0  0  0  0  0  0  0  0  0  0  0
    6.1039    0.2607    3.4110 H   0  0  0  0  0  0  0  0  0  0  0  0
    3.5462   -0.5745    2.0538 H   0  0  0  0  0  0  0  0  0  0  0  0
    3.7386   -0.1771    3.7448 H   0  0  0  0  0  0  0  0  0  0  0  0
   -2.2517   -0.6327    1.1007 H   0  0  0  0  0  0  0  0  0  0  0  0
   -1.6377   -1.6671   -0.1670 H   0  0  0  0  0  0  0  0  0  0  0  0
   -4.1572   -0.0097   -0.2916 H   0  0  0  0  0  0  0  0  0  0  0  0
   -4.0737   -1.7500   -0.1551 H   0  0  0  0  0  0  0  0  0  0  0  0
  1 18  1  0  0  0  0
  1 26  1  0  0  0  0
  1 27  1  0  0  0  0
  1 28  1  0  0  0  0
  2 18  1  0  0  0  0
  2 29  1  0  0  0  0
  2 30  1  0  0  0  0
  2 31  1  0  0  0  0
  3 18  1  0  0  0  0
  3  4  1  0  0  0  0
  3 21  2  0  0  0  0
  4  5  1  0  0  0  0
  4 17  1  0  0  0  0
  4 32  1  6  0  0  0
  5  6  1  0  0  0  0
  5 33  1  0  0  0  0
  5 34  1  0  0  0  0
  6  7  1  0  0  0  0
  6 35  1  0  0  0  0
  6 36  1  0  0  0  0
  7 19  1  0  0  0  0
  7 16  1  0  0  0  0
  7 37  1  1  0  0  0
  8 19  1  0  0  0  0
  8 20  1  0  0  0  0
  8 22  2  0  0  0  0
  9 20  1  0  0  0  0
  9 10  1  0  0  0  0
  9 40  1  0  0  0  0
  9 41  1  0  0  0  0
 10 11  1  0  0  0  0
 10 12  1  0  0  0  0
 10 15  1  0  0  0  0
 11 24  1  0  0  0  0
 11 23  2  0  0  0  0
 12 13  1  0  0  0  0
 12 43  1  0  0  0  0
 12 44  1  0  0  0  0
 13 25  1  0  0  0  0
 13 45  1  0  0  0  0
 13 46  1  0  0  0  0
 14 25  1  0  0  0  0
 14 15  1  0  0  0  0
 14 47  1  0  0  0  0
 14 48  1  0  0  0  0
 15 49  1  0  0  0  0
 15 50  1  0  0  0  0
 16 17  1  0  0  0  0
 16 51  1  0  0  0  0
 16 52  1  0  0  0  0
 17 53  1  0  0  0  0
 17 54  1  0  0  0  0
 19 38  1  0  0  0  0
 20 39  1  0  0  0  0
 24 42  1  0  0  0  0
M  END
>  <score>
0.45317918062210083

$$$$
Z4258869063
 OpenBabel08202115463D

 55 56  0  0  0  0  0  0  0  0999 V2000
   -7.6627   -1.5356   -3.8267 C   0  0  0  0  0  0  0  0  0  0  0  0
   -7.6159   -2.3187   -2.5381 C   0  0  0  0  0  0  0  0  0  0  0  0
   -5.3854   -1.7614   -1.4983 C   0  0  0  0  0  0  0  0  0  0  0  0
   -4.1773   -2.4120   -1.4166 C   0  0  0  0  0  0  0  0  0  0  0  0
   -2.8649   -1.9430   -0.8342 C   0  0  0  0  0  0  0  0  0  0  0  0
   -2.0643   -1.0131   -1.7107 C   0  0  0  0  0  0  0  0  0  0  0  0
   -0.7947    0.4850   -0.2086 C   0  0  0  0  0  0  0  0  0  0  0  0
    1.2434   -0.5611    0.6615 C   0  0  0  0  0  0  0  0  0  0  0  0
    2.3931   -0.3704   -0.2938 C   0  0  0  0  0  0  0  0  0  0  0  0
    3.5381    0.4024    0.3895 C   0  0  0  0  0  0  0  0  0  0  0  0
    4.2068    2.4129    1.5010 C   0  0  0  0  0  0  0  0  0  0  0  0
    5.2437    1.8234    2.4578 C   0  0  0  0  0  0  0  0  0  0  0  0
    4.6882    1.5730    3.8580 C   0  0  0  0  0  0  0  0  0  0  0  0
    6.5080    2.6901    2.5592 C   0  0  0  0  0  0  0  0  0  0  0  0
    1.9581    2.3028    0.8017 C   0  0  0  0  0  0  0  0  0  0  0  0
    0.5969    1.7428    1.2837 C   0  0  0  0  0  0  0  0  0  0  0  0
   -4.3930   -3.6651   -2.0062 C   0  0  0  0  0  0  0  0  0  0  0  0
   -6.2473   -2.6100   -2.1075 N   0  0  0  0  0  0  0  0  0  0  0  0
   -0.8446   -0.6684   -0.9981 N   0  0  0  0  0  0  0  0  0  0  0  0
    0.3079    0.5691    0.5582 N   0  0  0  0  0  0  0  0  0  0  0  0
    3.0644    1.5021    1.2742 N   0  0  0  0  0  0  0  0  0  0  0  0
   -5.6530   -3.7862   -2.4342 N   0  0  0  0  0  0  0  0  0  0  0  0
   -1.7005    1.3051   -0.2546 O   0  0  0  0  0  0  0  0  0  0  0  0
    5.6431    0.5408    1.9666 O   0  0  0  0  0  0  0  0  0  0  0  0
   -7.1014   -2.0504   -4.5782 H   0  0  0  0  0  0  0  0  0  0  0  0
   -7.2410   -0.5648   -3.6693 H   0  0  0  0  0  0  0  0  0  0  0  0
   -8.6789   -1.4360   -4.1465 H   0  0  0  0  0  0  0  0  0  0  0  0
   -8.1349   -3.2436   -2.6800 H   0  0  0  0  0  0  0  0  0  0  0  0
   -8.1022   -1.7499   -1.7733 H   0  0  0  0  0  0  0  0  0  0  0  0
   -5.5970   -0.8018   -1.1577 H   0  0  0  0  0  0  0  0  0  0  0  0
   -2.2652   -2.8063   -0.6345 H   0  0  0  0  0  0  0  0  0  0  0  0
   -3.0742   -1.4335    0.0831 H   0  0  0  0  0  0  0  0  0  0  0  0
   -2.6298   -0.1276   -1.9133 H   0  0  0  0  0  0  0  0  0  0  0  0
   -1.8218   -1.5006   -2.6319 H   0  0  0  0  0  0  0  0  0  0  0  0
   -0.0559   -1.2454   -1.0711 H   0  0  0  0  0  0  0  0  0  0  0  0
    1.6200   -0.6185    1.6613 H   0  0  0  0  0  0  0  0  0  0  0  0
    0.7300   -1.4685    0.4206 H   0  0  0  0  0  0  0  0  0  0  0  0
    2.0552    0.1812   -1.1461 H   0  0  0  0  0  0  0  0  0  0  0  0
    2.7527   -1.3280   -0.6078 H   0  0  0  0  0  0  0  0  0  0  0  0
    4.1631    0.8238   -0.3699 H   0  0  0  0  0  0  0  0  0  0  0  0
    4.1070   -0.2858    0.9791 H   0  0  0  0  0  0  0  0  0  0  0  0
    3.8388    3.3283    1.9153 H   0  0  0  0  0  0  0  0  0  0  0  0
    4.6797    2.6106    0.5618 H   0  0  0  0  0  0  0  0  0  0  0  0
    5.4885    1.3108    4.5181 H   0  0  0  0  0  0  0  0  0  0  0  0
    3.9791    0.7726    3.8222 H   0  0  0  0  0  0  0  0  0  0  0  0
    4.2080    2.4600    4.2149 H   0  0  0  0  0  0  0  0  0  0  0  0
    7.2310    2.1964    3.1744 H   0  0  0  0  0  0  0  0  0  0  0  0
    6.2579    3.6360    2.9922 H   0  0  0  0  0  0  0  0  0  0  0  0
    6.9157    2.8414    1.5815 H   0  0  0  0  0  0  0  0  0  0  0  0
    5.8366    0.6030    1.0283 H   0  0  0  0  0  0  0  0  0  0  0  0
    1.9695    2.3122   -0.2682 H   0  0  0  0  0  0  0  0  0  0  0  0
    2.0715    3.3013    1.1689 H   0  0  0  0  0  0  0  0  0  0  0  0
   -0.1709    2.4686    1.1146 H   0  0  0  0  0  0  0  0  0  0  0  0
    0.6505    1.5163    2.3281 H   0  0  0  0  0  0  0  0  0  0  0  0
   -3.6671   -4.4041   -2.0985 H   0  0  0  0  0  0  0  0  0  0  0  0
  1  2  1  0  0  0  0
  1 25  1  0  0  0  0
  1 26  1  0  0  0  0
  1 27  1  0  0  0  0
  2 18  1  0  0  0  0
  2 28  1  0  0  0  0
  2 29  1  0  0  0  0
  3 18  1  0  0  0  0
  3 30  1  0  0  0  0
  3  4  2  0  0  0  0
  4  5  1  0  0  0  0
  4 17  1  0  0  0  0
  5  6  1  0  0  0  0
  5 31  1  0  0  0  0
  5 32  1  0  0  0  0
  6 19  1  0  0  0  0
  6 33  1  0  0  0  0
  6 34  1  0  0  0  0
  7 19  1  0  0  0  0
  7 20  1  0  0  0  0
  7 23  2  0  0  0  0
  8 20  1  0  0  0  0
  8  9  1  0  0  0  0
  8 36  1  0  0  0  0
  8 37  1  0  0  0  0
  9 10  1  0  0  0  0
  9 38  1  0  0  0  0
  9 39  1  0  0  0  0
 10 21  1  0  0  0  0
 10 40  1  0  0  0  0
 10 41  1  0  0  0  0
 11 21  1  0  0  0  0
 11 12  1  0  0  0  0
 11 42  1  0  0  0  0
 11 43  1  0  0  0  0
 12 13  1  0  0  0  0
 12 14  1  0  0  0  0
 12 24  1  0  0  0  0
 13 44  1  0  0  0  0
 13 45  1  0  0  0  0
 13 46  1  0  0  0  0
 14 47  1  0  0  0  0
 14 48  1  0  0  0  0
 14 49  1  0  0  0  0
 15 21  1  0  0  0  0
 15 16  1  0  0  0  0
 15 51  1  0  0  0  0
 15 52  1  0  0  0  0
 16 20  1  0  0  0  0
 16 53  1  0  0  0  0
 16 54  1  0  0  0  0
 17 55  1  0  0  0  0
 17 22  2  0  0  0  0
 18 22  1  0  0  0  0
 19 35  1  0  0  0  0
 24 50  1  0  0  0  0
M  END
>  <score>
0.45318782329559326

$$$$
PV-003987404063
 OpenBabel08202115463D

 48 50  0  0  0  0  0  0  0  0999 V2000
   -3.1211    0.6059   -0.4116 C   0  0  0  0  0  0  0  0  0  0  0  0
   -0.7437    0.1817    0.2351 C   0  0  0  0  0  0  0  0  0  0  0  0
    0.1795    0.6309   -0.8742 C   0  0  0  0  0  0  0  0  0  0  0  0
    2.5004    0.7269   -0.0508 C   0  0  0  0  0  0  0  0  0  0  0  0
    3.7058    1.5894    0.3402 C   0  0  2  0  0  0  0  0  0  0  0  0
    4.1608    1.3164    1.7751 C   0  0  0  0  0  0  0  0  0  0  0  0
    5.3678    2.1930    2.1481 C   0  0  0  0  0  0  0  0  0  0  0  0
    5.2046    2.4804    3.6179 C   0  0  0  0  0  0  0  0  0  0  0  0
    3.8279    2.1875    4.0070 C   0  0  0  0  0  0  0  0  0  0  0  0
    3.0796    1.7576    2.7957 C   0  0  0  0  0  0  0  0  0  0  0  0
   -1.9602   -1.5282   -0.9181 C   0  0  0  0  0  0  0  0  0  0  0  0
   -3.2070   -1.9678   -1.6216 C   0  0  0  0  0  0  0  0  0  0  0  0
   -4.5022   -1.5687   -1.6241 C   0  0  0  0  0  0  0  0  0  0  0  0
   -5.1923   -2.4355   -2.5384 C   0  0  0  0  0  0  0  0  0  0  0  0
   -6.5144   -2.5451   -3.0293 C   0  0  0  0  0  0  0  0  0  0  0  0
   -5.8001   -4.3448   -4.2960 C   0  0  0  0  0  0  0  0  0  0  0  0
   -4.2585   -3.3287   -3.0532 C   0  0  0  0  0  0  0  0  0  0  0  0
   -2.0013   -0.3419   -0.3281 N   0  0  0  0  0  0  0  0  0  0  0  0
    1.3498    1.3536   -0.3728 N   0  0  0  0  0  0  0  0  0  0  0  0
   -6.7955   -3.5281   -3.9220 N   0  0  0  0  0  0  0  0  0  0  0  0
   -4.5133   -4.3187   -3.9460 N   0  0  0  0  0  0  0  0  0  0  0  0
   -3.0406   -3.0470   -2.4959 N   0  0  0  0  0  0  0  0  0  0  0  0
    2.5823   -0.4984   -0.0697 O   0  0  0  0  0  0  0  0  0  0  0  0
    4.4715   -0.0811    1.9229 O   0  0  0  0  0  0  0  0  0  0  0  0
   -0.9813   -2.2305   -0.9006 O   0  0  0  0  0  0  0  0  0  0  0  0
    3.3039    2.8960    0.2931 F   0  0  0  0  0  0  0  0  0  0  0  0
   -3.3838    0.4800   -1.4411 H   0  0  0  0  0  0  0  0  0  0  0  0
   -2.8122    1.6079   -0.1985 H   0  0  0  0  0  0  0  0  0  0  0  0
   -3.9240    0.3332    0.2411 H   0  0  0  0  0  0  0  0  0  0  0  0
   -0.2643   -0.5874    0.8038 H   0  0  0  0  0  0  0  0  0  0  0  0
   -0.9614    1.0137    0.8718 H   0  0  0  0  0  0  0  0  0  0  0  0
   -0.3645    1.2746   -1.5335 H   0  0  0  0  0  0  0  0  0  0  0  0
    0.5137   -0.2315   -1.4124 H   0  0  0  0  0  0  0  0  0  0  0  0
    1.2955    2.3263   -0.2673 H   0  0  0  0  0  0  0  0  0  0  0  0
    4.5126    1.3978   -0.3361 H   0  0  0  0  0  0  0  0  0  0  0  0
    3.6624   -0.5958    1.8776 H   0  0  0  0  0  0  0  0  0  0  0  0
    5.3599    3.1024    1.5844 H   0  0  0  0  0  0  0  0  0  0  0  0
    6.2828    1.6686    1.9673 H   0  0  0  0  0  0  0  0  0  0  0  0
    5.4201    3.5111    3.8083 H   0  0  0  0  0  0  0  0  0  0  0  0
    5.8754    1.8654    4.1807 H   0  0  0  0  0  0  0  0  0  0  0  0
    3.8172    1.4039    4.7355 H   0  0  0  0  0  0  0  0  0  0  0  0
    3.3746    3.0647    4.4194 H   0  0  0  0  0  0  0  0  0  0  0  0
    2.5048    2.5704    2.4034 H   0  0  0  0  0  0  0  0  0  0  0  0
    2.4297    0.9401    3.0285 H   0  0  0  0  0  0  0  0  0  0  0  0
   -4.9148   -0.7891   -1.0731 H   0  0  0  0  0  0  0  0  0  0  0  0
   -7.2548   -1.8869   -2.7131 H   0  0  0  0  0  0  0  0  0  0  0  0
   -6.0694   -5.1060   -4.9514 H   0  0  0  0  0  0  0  0  0  0  0  0
   -2.2006   -3.5181   -2.6773 H   0  0  0  0  0  0  0  0  0  0  0  0
  1 18  1  0  0  0  0
  1 27  1  0  0  0  0
  1 28  1  0  0  0  0
  1 29  1  0  0  0  0
  2 18  1  0  0  0  0
  2  3  1  0  0  0  0
  2 30  1  0  0  0  0
  2 31  1  0  0  0  0
  3 19  1  0  0  0  0
  3 32  1  0  0  0  0
  3 33  1  0  0  0  0
  4 19  1  0  0  0  0
  4  5  1  0  0  0  0
  4 23  2  0  0  0  0
  5 26  1  0  0  0  0
  5  6  1  0  0  0  0
  5 35  1  6  0  0  0
  6 24  1  0  0  0  0
  6  7  1  0  0  0  0
  6 10  1  0  0  0  0
  7  8  1  0  0  0  0
  7 37  1  0  0  0  0
  7 38  1  0  0  0  0
  8  9  1  0  0  0  0
  8 39  1  0  0  0  0
  8 40  1  0  0  0  0
  9 10  1  0  0  0  0
  9 41  1  0  0  0  0
  9 42  1  0  0  0  0
 10 43  1  0  0  0  0
 10 44  1  0  0  0  0
 11 18  1  0  0  0  0
 11 12  1  0  0  0  0
 11 25  2  0  0  0  0
 12 22  1  0  0  0  0
 12 13  2  0  0  0  0
 13 14  1  0  0  0  0
 13 45  1  0  0  0  0
 14 17  1  0  0  0  0
 14 15  2  0  0  0  0
 15 20  1  0  0  0  0
 15 46  1  0  0  0  0
 16 21  1  0  0  0  0
 16 47  1  0  0  0  0
 16 20  2  0  0  0  0
 17 22  1  0  0  0  0
 17 21  2  0  0  0  0
 19 34  1  0  0  0  0
 22 48  1  0  0  0  0
 24 36  1  0  0  0  0
M  END
>  <score>
0.45322245359420776

$$$$
PV-004008923139
 OpenBabel08202115463D

 62 64  0  0  0  0  0  0  0  0999 V2000
   -6.8836   -3.4832   -1.5226 C   0  0  0  0  0  0  0  0  0  0  0  0
   -6.4982   -2.9404   -2.8891 C   0  0  0  0  0  0  0  0  0  0  0  0
   -7.0616   -3.7717   -4.0301 C   0  0  0  0  0  0  0  0  0  0  0  0
   -4.9971   -2.8366   -2.9979 C   0  0  0  0  0  0  0  0  0  0  0  0
   -4.3548   -1.8458   -2.0882 C   0  0  0  0  0  0  0  0  0  0  0  0
   -2.8351   -1.8595   -1.9878 C   0  0  0  0  0  0  0  0  0  0  0  0
   -2.2891   -0.8072   -1.0222 C   0  0  0  0  0  0  0  0  0  0  0  0
   -0.2517    0.1851   -0.0046 C   0  0  1  0  0  0  0  0  0  0  0  0
    0.5908   -0.5356    1.0403 C   0  0  0  0  0  0  0  0  0  0  0  0
    1.4635    0.4384    1.8189 C   0  0  0  0  0  0  0  0  0  0  0  0
    3.6087    1.3118    0.9597 C   0  0  0  0  0  0  0  0  0  0  0  0
    4.3111    0.4633    1.9954 C   0  0  0  0  0  0  0  0  0  0  0  0
    5.7982    0.7717    2.1105 C   0  0  0  0  0  0  0  0  0  0  0  0
    6.1175    2.1395    2.7406 C   0  0  0  0  0  0  0  0  0  0  0  0
    6.3220    1.4259    4.0717 C   0  0  0  0  0  0  0  0  0  0  0  0
    6.5100    0.0879    3.3314 C   0  0  0  0  0  0  0  0  0  0  0  0
    1.4842    1.9880   -0.0995 C   0  0  2  0  0  0  0  0  0  0  0  0
    0.5784    2.9909    0.6110 C   0  0  0  0  0  0  0  0  0  0  0  0
   -0.2275    4.0549   -0.0725 C   0  0  0  0  0  0  0  0  0  0  0  0
    0.9461    4.4324    0.7757 C   0  0  0  0  0  0  0  0  0  0  0  0
    0.6321    1.0256   -0.9072 C   0  0  0  0  0  0  0  0  0  0  0  0
   -3.0390    0.0389   -0.5370 O   0  0  0  0  0  0  0  0  0  0  0  0
    4.2483    2.0364    0.1984 O   0  0  0  0  0  0  0  0  0  0  0  0
    6.4357    0.5379    0.8446 O   0  0  0  0  0  0  0  0  0  0  0  0
   -0.9634   -0.8001   -0.8110 N   0  0  0  0  0  0  0  0  0  0  0  0
    2.2664    1.2502    0.8963 N   0  0  0  0  0  0  0  0  0  0  0  0
   -6.4816   -4.4676   -1.4029 H   0  0  0  0  0  0  0  0  0  0  0  0
   -7.9499   -3.5214   -1.4420 H   0  0  0  0  0  0  0  0  0  0  0  0
   -6.4906   -2.8427   -0.7609 H   0  0  0  0  0  0  0  0  0  0  0  0
   -6.9001   -1.9524   -2.9742 H   0  0  0  0  0  0  0  0  0  0  0  0
   -6.8141   -3.3111   -4.9636 H   0  0  0  0  0  0  0  0  0  0  0  0
   -8.1255   -3.8338   -3.9343 H   0  0  0  0  0  0  0  0  0  0  0  0
   -6.6418   -4.7553   -3.9956 H   0  0  0  0  0  0  0  0  0  0  0  0
   -4.7578   -2.5634   -4.0044 H   0  0  0  0  0  0  0  0  0  0  0  0
   -4.5837   -3.7994   -2.7812 H   0  0  0  0  0  0  0  0  0  0  0  0
   -4.7416   -2.0167   -1.1053 H   0  0  0  0  0  0  0  0  0  0  0  0
   -4.6443   -0.8712   -2.4215 H   0  0  0  0  0  0  0  0  0  0  0  0
   -2.4279   -1.6739   -2.9597 H   0  0  0  0  0  0  0  0  0  0  0  0
   -2.5249   -2.8260   -1.6492 H   0  0  0  0  0  0  0  0  0  0  0  0
   -0.4340   -1.5103   -1.2302 H   0  0  0  0  0  0  0  0  0  0  0  0
   -0.9576    0.8202    0.4885 H   0  0  0  0  0  0  0  0  0  0  0  0
    1.2188   -1.2492    0.5490 H   0  0  0  0  0  0  0  0  0  0  0  0
   -0.0595   -1.0420    1.7226 H   0  0  0  0  0  0  0  0  0  0  0  0
    2.1158   -0.1109    2.4652 H   0  0  0  0  0  0  0  0  0  0  0  0
    0.8396    1.0816    2.4039 H   0  0  0  0  0  0  0  0  0  0  0  0
    4.1965   -0.5661    1.7270 H   0  0  0  0  0  0  0  0  0  0  0  0
    3.8526    0.6377    2.9463 H   0  0  0  0  0  0  0  0  0  0  0  0
    7.1789    1.1373    0.7446 H   0  0  0  0  0  0  0  0  0  0  0  0
    6.9949    2.6127    2.3519 H   0  0  0  0  0  0  0  0  0  0  0  0
    5.3030    2.8334    2.7301 H   0  0  0  0  0  0  0  0  0  0  0  0
    5.4679    1.4515    4.7158 H   0  0  0  0  0  0  0  0  0  0  0  0
    7.1866    1.7505    4.6120 H   0  0  0  0  0  0  0  0  0  0  0  0
    5.9798   -0.7389    3.7556 H   0  0  0  0  0  0  0  0  0  0  0  0
    7.5285   -0.1913    3.1594 H   0  0  0  0  0  0  0  0  0  0  0  0
    2.1487    2.5096   -0.7563 H   0  0  0  0  0  0  0  0  0  0  0  0
    0.0916    2.5765    1.4690 H   0  0  0  0  0  0  0  0  0  0  0  0
   -1.2207    4.2713    0.2617 H   0  0  0  0  0  0  0  0  0  0  0  0
   -0.1765    4.1646   -1.1356 H   0  0  0  0  0  0  0  0  0  0  0  0
    1.8356    4.8126    0.3186 H   0  0  0  0  0  0  0  0  0  0  0  0
    0.7914    4.9193    1.7159 H   0  0  0  0  0  0  0  0  0  0  0  0
    0.0140    1.5853   -1.5777 H   0  0  0  0  0  0  0  0  0  0  0  0
    1.2734    0.3785   -1.4684 H   0  0  0  0  0  0  0  0  0  0  0  0
  1  2  1  0  0  0  0
  1 27  1  0  0  0  0
  1 28  1  0  0  0  0
  1 29  1  0  0  0  0
  2  3  1  0  0  0  0
  2  4  1  0  0  0  0
  2 30  1  0  0  0  0
  3 31  1  0  0  0  0
  3 32  1  0  0  0  0
  3 33  1  0  0  0  0
  4  5  1  0  0  0  0
  4 34  1  0  0  0  0
  4 35  1  0  0  0  0
  5  6  1  0  0  0  0
  5 36  1  0  0  0  0
  5 37  1  0  0  0  0
  6  7  1  0  0  0  0
  6 38  1  0  0  0  0
  6 39  1  0  0  0  0
  7 25  1  0  0  0  0
  7 22  2  0  0  0  0
  8 25  1  0  0  0  0
  8  9  1  0  0  0  0
  8 21  1  0  0  0  0
  8 41  1  1  0  0  0
  9 10  1  0  0  0  0
  9 42  1  0  0  0  0
  9 43  1  0  0  0  0
 10 26  1  0  0  0  0
 10 44  1  0  0  0  0
 10 45  1  0  0  0  0
 11 26  1  0  0  0  0
 11 12  1  0  0  0  0
 11 23  2  0  0  0  0
 12 13  1  0  0  0  0
 12 46  1  0  0  0  0
 12 47  1  0  0  0  0
 13 24  1  0  0  0  0
 13 14  1  0  0  0  0
 13 16  1  0  0  0  0
 14 15  1  0  0  0  0
 14 49  1  0  0  0  0
 14 50  1  0  0  0  0
 15 16  1  0  0  0  0
 15 51  1  0  0  0  0
 15 52  1  0  0  0  0
 16 53  1  0  0  0  0
 16 54  1  0  0  0  0
 17 26  1  0  0  0  0
 17 18  1  0  0  0  0
 17 21  1  0  0  0  0
 17 55  1  6  0  0  0
 18 19  1  0  0  0  0
 18 20  1  0  0  0  0
 18 56  1  0  0  0  0
 19 20  1  0  0  0  0
 19 57  1  0  0  0  0
 19 58  1  0  0  0  0
 20 59  1  0  0  0  0
 20 60  1  0  0  0  0
 21 61  1  0  0  0  0
 21 62  1  0  0  0  0
 24 48  1  0  0  0  0
 25 40  1  0  0  0  0
M  END
>  <score>
0.4532509446144104

$$$$
PV-002199037793
 OpenBabel08202115463D

 32 34  0  0  0  0  0  0  0  0999 V2000
   -2.4740   -2.8731   -0.4423 O   0  0  0  0  0  0  0  0  0  0  0  0
   -2.8610   -1.9656   -1.1858 C   0  0  0  0  0  0  0  0  0  0  0  0
   -1.0819   -0.3156   -0.6172 C   0  0  0  0  0  0  0  0  0  0  0  0
   -0.4614   -1.1198    0.3201 C   0  0  0  0  0  0  0  0  0  0  0  0
    0.6753   -0.6710    0.9744 C   0  0  0  0  0  0  0  0  0  0  0  0
    1.1851    0.5826    0.6934 C   0  0  0  0  0  0  0  0  0  0  0  0
    2.3833    0.9942    1.4247 C   0  0  0  0  0  0  0  0  0  0  0  0
    3.2249    2.0705    1.2736 C   0  0  0  0  0  0  0  0  0  0  0  0
    4.2609    1.8602    2.1938 C   0  0  0  0  0  0  0  0  0  0  0  0
    5.4398    2.7309    2.4496 C   0  0  0  0  0  0  0  0  0  0  0  0
    0.5626    1.3889   -0.2467 C   0  0  0  0  0  0  0  0  0  0  0  0
   -0.5707    0.9416   -0.8992 C   0  0  0  0  0  0  0  0  0  0  0  0
   -4.0616   -2.1381   -2.0277 C   0  0  0  0  0  0  0  0  0  0  0  0
   -4.3487   -3.1807   -2.8549 C   0  0  0  0  0  0  0  0  0  0  0  0
   -6.0007   -1.4147   -2.7586 C   0  0  0  0  0  0  0  0  0  0  0  0
   -2.2216   -0.7688   -1.2790 N   0  0  0  0  0  0  0  0  0  0  0  0
    4.0808    0.7224    2.8710 N   0  0  0  0  0  0  0  0  0  0  0  0
    2.9200    0.2092    2.3890 N   0  0  0  0  0  0  0  0  0  0  0  0
   -4.9967   -1.1383   -1.9748 N   0  0  0  0  0  0  0  0  0  0  0  0
    5.1165    3.9104    2.9827 F   0  0  0  0  0  0  0  0  0  0  0  0
    6.1231    3.0313    1.3441 F   0  0  0  0  0  0  0  0  0  0  0  0
    6.3153    2.2004    3.2873 F   0  0  0  0  0  0  0  0  0  0  0  0
   -5.8631   -2.9110   -3.6128 S   0  0  0  0  0  0  0  0  0  0  0  0
   -2.6220   -0.1298   -1.9049 H   0  0  0  0  0  0  0  0  0  0  0  0
   -0.8473   -2.0614    0.5345 H   0  0  0  0  0  0  0  0  0  0  0  0
    1.1446   -1.2777    1.6768 H   0  0  0  0  0  0  0  0  0  0  0  0
    3.1162    2.8697    0.6171 H   0  0  0  0  0  0  0  0  0  0  0  0
    2.5187   -0.6285    2.7013 H   0  0  0  0  0  0  0  0  0  0  0  0
    0.9485    2.3306   -0.4612 H   0  0  0  0  0  0  0  0  0  0  0  0
   -1.0400    1.5483   -1.6016 H   0  0  0  0  0  0  0  0  0  0  0  0
   -3.7428   -4.0127   -3.0041 H   0  0  0  0  0  0  0  0  0  0  0  0
   -6.8210   -0.7839   -2.8621 H   0  0  0  0  0  0  0  0  0  0  0  0
  2 16  1  0  0  0  0
  2 13  1  0  0  0  0
  2  1  2  0  0  0  0
  3 16  1  0  0  0  0
  3 12  1  0  0  0  0
  3  4  2  0  0  0  0
  4  5  1  0  0  0  0
  4 25  1  0  0  0  0
  5 26  1  0  0  0  0
  5  6  2  0  0  0  0
  6  7  1  0  0  0  0
  6 11  1  0  0  0  0
  7 18  1  0  0  0  0
  7  8  2  0  0  0  0
  8  9  1  0  0  0  0
  8 27  1  0  0  0  0
  9 10  1  0  0  0  0
  9 17  2  0  0  0  0
 10 20  1  0  0  0  0
 10 21  1  0  0  0  0
 10 22  1  0  0  0  0
 11 29  1  0  0  0  0
 11 12  2  0  0  0  0
 12 30  1  0  0  0  0
 13 19  1  0  0  0  0
 13 14  2  0  0  0  0
 14 23  1  0  0  0  0
 14 31  1  0  0  0  0
 15 23  1  0  0  0  0
 15 32  1  0  0  0  0
 15 19  2  0  0  0  0
 16 24  1  0  0  0  0
 17 18  1  0  0  0  0
 18 28  1  0  0  0  0
M  END
>  <score>
0.45328837633132935

$$$$
PV-003264356290
 OpenBabel08202115463D

 36 37  0  0  0  0  0  0  0  0999 V2000
    5.4553    0.4388    3.6382 C   0  0  0  0  0  0  0  0  0  0  0  0
    4.4431    1.0581    2.7370 C   0  0  0  0  0  0  0  0  0  0  0  0
    4.4019    2.3421    2.2459 C   0  0  0  0  0  0  0  0  0  0  0  0
    3.2296    2.4328    1.4585 C   0  0  0  0  0  0  0  0  0  0  0  0
    1.5648    3.2654    0.1640 C   0  0  0  0  0  0  0  0  0  0  0  0
    0.9146    2.0379    0.1181 C   0  0  0  0  0  0  0  0  0  0  0  0
   -0.3263    1.9139   -0.6511 C   0  0  0  0  0  0  0  0  0  0  0  0
   -1.7485    0.3908   -1.7368 C   0  0  0  0  0  0  0  0  0  0  0  0
   -2.0196   -1.0827   -1.7974 C   0  0  0  0  0  0  0  0  0  0  0  0
   -4.2615   -2.0624   -0.6592 C   0  0  0  0  0  0  0  0  0  0  0  0
   -4.1589   -3.7772   -2.8115 C   0  0  0  0  0  0  0  0  0  0  0  0
    1.4244    0.9507    0.7838 C   0  0  0  0  0  0  0  0  0  0  0  0
    2.6085    1.1722    1.4763 C   0  0  0  0  0  0  0  0  0  0  0  0
    2.7072    3.5106    0.8052 N   0  0  0  0  0  0  0  0  0  0  0  0
   -2.8639   -1.4762   -2.8426 N   0  0  0  0  0  0  0  0  0  0  0  0
    3.3604    0.3442    2.2695 N   0  0  0  0  0  0  0  0  0  0  0  0
   -0.9872    2.8115   -1.1059 O   0  0  0  0  0  0  0  0  0  0  0  0
   -0.6763    0.6213   -0.8090 O   0  0  0  0  0  0  0  0  0  0  0  0
   -1.5057   -1.8452   -0.9566 O   0  0  0  0  0  0  0  0  0  0  0  0
   -5.3881   -1.5089   -2.9225 O   0  0  0  0  0  0  0  0  0  0  0  0
   -4.1801   -2.0747   -2.4073 S   0  0  0  0  0  0  0  0  0  0  0  0
    5.9468   -0.1679    2.9067 H   0  0  0  0  0  0  0  0  0  0  0  0
    5.0055   -0.1446    4.4142 H   0  0  0  0  0  0  0  0  0  0  0  0
    6.1114    1.1645    4.0716 H   0  0  0  0  0  0  0  0  0  0  0  0
    5.0954    3.0974    2.4192 H   0  0  0  0  0  0  0  0  0  0  0  0
    1.1234    4.0582   -0.3441 H   0  0  0  0  0  0  0  0  0  0  0  0
   -1.4685    0.7460   -2.7066 H   0  0  0  0  0  0  0  0  0  0  0  0
   -2.6268    0.9057   -1.4078 H   0  0  0  0  0  0  0  0  0  0  0  0
   -4.1269   -1.0626   -0.3024 H   0  0  0  0  0  0  0  0  0  0  0  0
   -3.4907   -2.6893   -0.2621 H   0  0  0  0  0  0  0  0  0  0  0  0
   -5.2166   -2.4276   -0.3443 H   0  0  0  0  0  0  0  0  0  0  0  0
   -3.3937   -4.2687   -2.2478 H   0  0  0  0  0  0  0  0  0  0  0  0
   -3.9615   -3.8929   -3.8568 H   0  0  0  0  0  0  0  0  0  0  0  0
   -5.1085   -4.2111   -2.5772 H   0  0  0  0  0  0  0  0  0  0  0  0
    0.9552    0.0226    0.7706 H   0  0  0  0  0  0  0  0  0  0  0  0
    3.1621   -0.5943    2.4699 H   0  0  0  0  0  0  0  0  0  0  0  0
  1  2  1  0  0  0  0
  1 22  1  0  0  0  0
  1 23  1  0  0  0  0
  1 24  1  0  0  0  0
  2 16  1  0  0  0  0
  2  3  2  0  0  0  0
  3  4  1  0  0  0  0
  3 25  1  0  0  0  0
  4 13  1  0  0  0  0
  4 14  2  0  0  0  0
  5 14  1  0  0  0  0
  5 26  1  0  0  0  0
  5  6  2  0  0  0  0
  6  7  1  0  0  0  0
  6 12  1  0  0  0  0
  7 18  1  0  0  0  0
  7 17  2  0  0  0  0
  8 18  1  0  0  0  0
  8  9  1  0  0  0  0
  8 27  1  0  0  0  0
  8 28  1  0  0  0  0
  9 15  1  0  0  0  0
  9 19  2  0  0  0  0
 10 29  1  0  0  0  0
 10 30  1  0  0  0  0
 10 31  1  0  0  0  0
 11 32  1  0  0  0  0
 11 33  1  0  0  0  0
 11 34  1  0  0  0  0
 12 35  1  0  0  0  0
 12 13  2  0  0  0  0
 13 16  1  0  0  0  0
 16 36  1  0  0  0  0
 21 10  1  0  0  0  0
 21 11  1  0  0  0  0
 21 15  2  0  0  0  0
 21 20  2  0  0  0  0
M  END
>  <score>
0.453399658203125

$$$$
Z4236107430
 OpenBabel08202115463D

 49 52  0  0  0  0  0  0  0  0999 V2000
    6.3725    1.6053    1.7343 C   0  0  0  0  0  0  0  0  0  0  0  0
    5.4550    0.9195    2.7167 C   0  0  1  0  0  0  0  0  0  0  0  0
    5.6607    1.5256    4.0999 C   0  0  0  0  0  0  0  0  0  0  0  0
    4.5661    1.0409    5.0375 C   0  0  0  0  0  0  0  0  0  0  0  0
    3.1826    1.5616    4.5720 C   0  0  0  0  0  0  0  0  0  0  0  0
    3.0199    1.3754    3.0908 C   0  0  0  0  0  0  0  0  0  0  0  0
    2.2473    1.1922    1.0882 C   0  0  0  0  0  0  0  0  0  0  0  0
    1.2896    1.1582   -0.0713 C   0  0  0  0  0  0  0  0  0  0  0  0
   -1.0249    1.4036   -0.7509 C   0  0  0  0  0  0  0  0  0  0  0  0
   -1.5918    0.0634   -1.0306 C   0  0  0  0  0  0  0  0  0  0  0  0
   -2.8386   -1.3625   -1.9992 C   0  0  0  0  0  0  0  0  0  0  0  0
   -4.2762   -3.1559   -3.0438 C   0  0  0  0  0  0  0  0  0  0  0  0
   -5.7808   -3.2187   -2.8522 C   0  0  0  0  0  0  0  0  0  0  0  0
   -6.4970   -2.3045   -3.8286 C   0  0  0  0  0  0  0  0  0  0  0  0
   -5.9644   -0.8821   -3.7112 C   0  0  0  0  0  0  0  0  0  0  0  0
   -4.4516   -0.8398   -3.8727 C   0  0  0  0  0  0  0  0  0  0  0  0
    3.5783    0.9735    1.0047 C   0  0  0  0  0  0  0  0  0  0  0  0
    1.9004    1.4510    2.3965 N   0  0  0  0  0  0  0  0  0  0  0  0
    0.0103    1.3725    0.2715 N   0  0  0  0  0  0  0  0  0  0  0  0
   -1.3274   -1.0741   -0.4871 N   0  0  0  0  0  0  0  0  0  0  0  0
   -2.1560   -2.0144   -1.1228 N   0  0  0  0  0  0  0  0  0  0  0  0
   -3.8142   -1.7695   -2.9323 N   0  0  0  0  0  0  0  0  0  0  0  0
    4.0692    1.0885    2.2778 N   0  0  0  0  0  0  0  0  0  0  0  0
    1.6768    0.9508   -1.2136 O   0  0  0  0  0  0  0  0  0  0  0  0
   -2.5418   -0.0288   -2.0041 O   0  0  0  0  0  0  0  0  0  0  0  0
    7.3677    1.6223    2.1270 H   0  0  0  0  0  0  0  0  0  0  0  0
    6.0359    2.6080    1.5726 H   0  0  0  0  0  0  0  0  0  0  0  0
    6.3644    1.0718    0.8068 H   0  0  0  0  0  0  0  0  0  0  0  0
    5.6868   -0.1245    2.7530 H   0  0  0  0  0  0  0  0  0  0  0  0
    6.6145    1.2262    4.4814 H   0  0  0  0  0  0  0  0  0  0  0  0
    5.6229    2.5927    4.0301 H   0  0  0  0  0  0  0  0  0  0  0  0
    4.5558   -0.0290    5.0433 H   0  0  0  0  0  0  0  0  0  0  0  0
    4.7637    1.4015    6.0254 H   0  0  0  0  0  0  0  0  0  0  0  0
    2.4133    1.0195    5.0812 H   0  0  0  0  0  0  0  0  0  0  0  0
    3.1013    2.6024    4.8067 H   0  0  0  0  0  0  0  0  0  0  0  0
   -0.2276    1.5084    1.2125 H   0  0  0  0  0  0  0  0  0  0  0  0
   -0.6024    1.7918   -1.6541 H   0  0  0  0  0  0  0  0  0  0  0  0
   -1.8135    2.0466   -0.4202 H   0  0  0  0  0  0  0  0  0  0  0  0
   -4.0263   -3.5357   -4.0125 H   0  0  0  0  0  0  0  0  0  0  0  0
   -3.7983   -3.7500   -2.2931 H   0  0  0  0  0  0  0  0  0  0  0  0
   -6.0181   -2.9170   -1.8534 H   0  0  0  0  0  0  0  0  0  0  0  0
   -6.1108   -4.2243   -3.0094 H   0  0  0  0  0  0  0  0  0  0  0  0
   -7.5447   -2.3078   -3.6112 H   0  0  0  0  0  0  0  0  0  0  0  0
   -6.3379   -2.6594   -4.8255 H   0  0  0  0  0  0  0  0  0  0  0  0
   -6.4126   -0.2788   -4.4728 H   0  0  0  0  0  0  0  0  0  0  0  0
   -6.2225   -0.4923   -2.7487 H   0  0  0  0  0  0  0  0  0  0  0  0
   -4.1033    0.1531   -3.6784 H   0  0  0  0  0  0  0  0  0  0  0  0
   -4.1953   -1.1187   -4.8734 H   0  0  0  0  0  0  0  0  0  0  0  0
    4.1220    0.7601    0.1442 H   0  0  0  0  0  0  0  0  0  0  0  0
  1  2  1  0  0  0  0
  1 26  1  0  0  0  0
  1 27  1  0  0  0  0
  1 28  1  0  0  0  0
  2  3  1  0  0  0  0
  2 23  1  0  0  0  0
  2 29  1  1  0  0  0
  3  4  1  0  0  0  0
  3 30  1  0  0  0  0
  3 31  1  0  0  0  0
  4  5  1  0  0  0  0
  4 32  1  0  0  0  0
  4 33  1  0  0  0  0
  5  6  1  0  0  0  0
  5 34  1  0  0  0  0
  5 35  1  0  0  0  0
  6 23  1  0  0  0  0
  6 18  2  0  0  0  0
  7 18  1  0  0  0  0
  7  8  1  0  0  0  0
  7 17  2  0  0  0  0
  8 19  1  0  0  0  0
  8 24  2  0  0  0  0
  9 19  1  0  0  0  0
  9 10  1  0  0  0  0
  9 37  1  0  0  0  0
  9 38  1  0  0  0  0
 10 25  1  0  0  0  0
 10 20  2  0  0  0  0
 11 22  1  0  0  0  0
 11 25  1  0  0  0  0
 11 21  2  0  0  0  0
 12 22  1  0  0  0  0
 12 13  1  0  0  0  0
 12 39  1  0  0  0  0
 12 40  1  0  0  0  0
 13 14  1  0  0  0  0
 13 41  1  0  0  0  0
 13 42  1  0  0  0  0
 14 15  1  0  0  0  0
 14 43  1  0  0  0  0
 14 44  1  0  0  0  0
 15 16  1  0  0  0  0
 15 45  1  0  0  0  0
 15 46  1  0  0  0  0
 16 22  1  0  0  0  0
 16 47  1  0  0  0  0
 16 48  1  0  0  0  0
 17 23  1  0  0  0  0
 17 49  1  0  0  0  0
 19 36  1  0  0  0  0
 20 21  1  0  0  0  0
M  END
>  <score>
0.45351272821426392

$$$$
PV-004121797609
 OpenBabel08202115463D

 53 55  0  0  0  0  0  0  0  0999 V2000
   -6.9527   -4.2934   -4.2504 C   0  0  0  0  0  0  0  0  0  0  0  0
   -4.8756   -3.3526   -3.0581 C   0  0  0  0  0  0  0  0  0  0  0  0
   -3.5329   -3.4263   -2.7301 C   0  0  0  0  0  0  0  0  0  0  0  0
   -3.7168   -1.4757   -1.5674 C   0  0  0  0  0  0  0  0  0  0  0  0
   -3.0440   -0.4338   -0.7323 C   0  0  0  0  0  0  0  0  0  0  0  0
   -0.9555    0.3058    0.3506 C   0  0  1  0  0  0  0  0  0  0  0  0
   -0.6625   -0.1138    1.7623 C   0  0  0  0  0  0  0  0  0  0  0  0
    0.2745    0.6292   -0.4860 C   0  0  1  0  0  0  0  0  0  0  0  0
   -0.0651    0.8915   -1.9427 C   0  0  0  0  0  0  0  0  0  0  0  0
    2.3770    1.6785    0.3049 C   0  0  0  0  0  0  0  0  0  0  0  0
    3.0287    2.8726    0.9449 C   0  0  0  0  0  0  0  0  0  0  0  0
    3.0700    2.8351    2.4834 C   0  0  0  0  0  0  0  0  0  0  0  0
    4.4342    2.1586    2.3445 C   0  0  0  0  0  0  0  0  0  0  0  0
    4.5864    0.6455    2.5045 C   0  0  0  0  0  0  0  0  0  0  0  0
    5.1014    0.9350    3.9261 C   0  0  0  0  0  0  0  0  0  0  0  0
    5.5149    2.3276    3.4165 C   0  0  0  0  0  0  0  0  0  0  0  0
    4.5672    2.8262    0.9753 C   0  0  0  0  0  0  0  0  0  0  0  0
   -5.0595   -1.4020   -1.8953 C   0  0  0  0  0  0  0  0  0  0  0  0
   -5.5518   -4.2911   -3.8300 N   0  0  0  0  0  0  0  0  0  0  0  0
   -2.9418   -2.4869   -1.9804 N   0  0  0  0  0  0  0  0  0  0  0  0
   -1.7873   -0.6901   -0.3581 N   0  0  0  0  0  0  0  0  0  0  0  0
    1.0456    1.7213    0.0908 N   0  0  0  0  0  0  0  0  0  0  0  0
   -5.6507   -2.3414   -2.6450 N   0  0  0  0  0  0  0  0  0  0  0  0
   -3.6291    0.5901   -0.4196 O   0  0  0  0  0  0  0  0  0  0  0  0
    0.3142   -1.1466    1.7618 O   0  0  0  0  0  0  0  0  0  0  0  0
    3.0405    0.6925   -0.0132 O   0  0  0  0  0  0  0  0  0  0  0  0
   -7.2035   -5.2529   -4.6521 H   0  0  0  0  0  0  0  0  0  0  0  0
   -7.1014   -3.5436   -4.9991 H   0  0  0  0  0  0  0  0  0  0  0  0
   -7.5781   -4.0854   -3.4075 H   0  0  0  0  0  0  0  0  0  0  0  0
   -5.0173   -5.0544   -4.1333 H   0  0  0  0  0  0  0  0  0  0  0  0
   -2.9696   -4.2301   -3.0739 H   0  0  0  0  0  0  0  0  0  0  0  0
   -1.4035   -1.5689   -0.5604 H   0  0  0  0  0  0  0  0  0  0  0  0
   -1.5284    1.2073    0.4132 H   0  0  0  0  0  0  0  0  0  0  0  0
   -1.5603   -0.4735    2.2200 H   0  0  0  0  0  0  0  0  0  0  0  0
   -0.2923    0.7255    2.3132 H   0  0  0  0  0  0  0  0  0  0  0  0
    1.1492   -0.7979    1.4413 H   0  0  0  0  0  0  0  0  0  0  0  0
    0.8967   -0.2411   -0.4667 H   0  0  0  0  0  0  0  0  0  0  0  0
   -0.6907    0.1053   -2.3108 H   0  0  0  0  0  0  0  0  0  0  0  0
    0.8364    0.9284   -2.5178 H   0  0  0  0  0  0  0  0  0  0  0  0
   -0.5804    1.8256   -2.0260 H   0  0  0  0  0  0  0  0  0  0  0  0
    0.5670    2.5396    0.3393 H   0  0  0  0  0  0  0  0  0  0  0  0
    2.6168    3.7691    0.5307 H   0  0  0  0  0  0  0  0  0  0  0  0
    2.3133    2.2302    2.9379 H   0  0  0  0  0  0  0  0  0  0  0  0
    3.0911    3.7951    2.9553 H   0  0  0  0  0  0  0  0  0  0  0  0
    3.6697    0.0953    2.4626 H   0  0  0  0  0  0  0  0  0  0  0  0
    5.3035    0.1950    1.8505 H   0  0  0  0  0  0  0  0  0  0  0  0
    5.9147    0.3152    4.2413 H   0  0  0  0  0  0  0  0  0  0  0  0
    4.3444    0.9428    4.6823 H   0  0  0  0  0  0  0  0  0  0  0  0
    5.3423    3.1275    4.1059 H   0  0  0  0  0  0  0  0  0  0  0  0
    6.5147    2.3896    3.0405 H   0  0  0  0  0  0  0  0  0  0  0  0
    5.0127    2.2142    0.2190 H   0  0  0  0  0  0  0  0  0  0  0  0
    5.0450    3.7835    0.9873 H   0  0  0  0  0  0  0  0  0  0  0  0
   -5.6227   -0.5981   -1.5514 H   0  0  0  0  0  0  0  0  0  0  0  0
  1 19  1  0  0  0  0
  1 27  1  0  0  0  0
  1 28  1  0  0  0  0
  1 29  1  0  0  0  0
  2 19  1  0  0  0  0
  2 23  1  0  0  0  0
  2  3  2  0  0  0  0
  3 20  1  0  0  0  0
  3 31  1  0  0  0  0
  4  5  1  0  0  0  0
  4 18  1  0  0  0  0
  4 20  2  0  0  0  0
  5 21  1  0  0  0  0
  5 24  2  0  0  0  0
  6 21  1  0  0  0  0
  6  7  1  0  0  0  0
  6  8  1  0  0  0  0
  6 33  1  1  0  0  0
  7 25  1  0  0  0  0
  7 34  1  0  0  0  0
  7 35  1  0  0  0  0
  8  9  1  0  0  0  0
  8 22  1  0  0  0  0
  8 37  1  1  0  0  0
  9 38  1  0  0  0  0
  9 39  1  0  0  0  0
  9 40  1  0  0  0  0
 10 22  1  0  0  0  0
 10 11  1  0  0  0  0
 10 26  2  0  0  0  0
 11 12  1  0  0  0  0
 11 17  1  0  0  0  0
 11 42  1  0  0  0  0
 12 13  1  0  0  0  0
 12 43  1  0  0  0  0
 12 44  1  0  0  0  0
 13 14  1  0  0  0  0
 13 16  1  0  0  0  0
 13 17  1  0  0  0  0
 14 15  1  0  0  0  0
 14 45  1  0  0  0  0
 14 46  1  0  0  0  0
 15 16  1  0  0  0  0
 15 47  1  0  0  0  0
 15 48  1  0  0  0  0
 16 49  1  0  0  0  0
 16 50  1  0  0  0  0
 17 51  1  0  0  0  0
 17 52  1  0  0  0  0
 18 53  1  0  0  0  0
 18 23  2  0  0  0  0
 19 30  1  0  0  0  0
 21 32  1  0  0  0  0
 22 41  1  0  0  0  0
 25 36  1  0  0  0  0
M  END
>  <score>
0.45361989736557007

$$$$
PV-002724242750
 OpenBabel08202115463D

 47 48  0  0  0  0  0  0  0  0999 V2000
    5.3047    1.0047    1.3396 C   0  0  0  0  0  0  0  0  0  0  0  0
    4.3390    1.7892    2.2358 C   0  0  0  0  0  0  0  0  0  0  0  0
    4.8645    3.2145    2.4450 C   0  0  0  0  0  0  0  0  0  0  0  0
    4.2185    1.0985    3.5637 C   0  0  0  0  0  0  0  0  0  0  0  0
    2.9737    1.8468    1.5780 C   0  0  0  0  0  0  0  0  0  0  0  0
    1.9980    0.8170    2.1238 C   0  0  0  0  0  0  0  0  0  0  0  0
    0.7120    0.8330    1.3415 C   0  0  0  0  0  0  0  0  0  0  0  0
    0.4777    0.8042   -0.0107 C   0  0  0  0  0  0  0  0  0  0  0  0
   -1.6389    1.1478   -1.3539 C   0  0  0  0  0  0  0  0  0  0  0  0
   -3.0386    0.5976   -1.2352 C   0  0  0  0  0  0  0  0  0  0  0  0
   -4.1772   -1.2304   -2.4100 C   0  0  0  0  0  0  0  0  0  0  0  0
   -4.2768   -2.7581   -2.5131 C   0  0  0  0  0  0  0  0  0  0  0  0
   -3.3297   -3.3749   -1.5772 C   0  0  0  0  0  0  0  0  0  0  0  0
   -5.7113   -3.2975   -2.3921 C   0  0  0  0  0  0  0  0  0  0  0  0
   -5.5846   -3.7959   -3.7998 C   0  0  0  0  0  0  0  0  0  0  0  0
   -4.1680   -3.2954   -3.9571 C   0  0  0  0  0  0  0  0  0  0  0  0
    4.3192   -0.3078    3.3826 O   0  0  0  0  0  0  0  0  0  0  0  0
   -5.0465   -0.5004   -2.8845 O   0  0  0  0  0  0  0  0  0  0  0  0
   -6.3402   -4.3840   -4.5395 O   0  0  0  0  0  0  0  0  0  0  0  0
   -0.8549    0.9498   -0.1394 N   0  0  0  0  0  0  0  0  0  0  0  0
   -3.0974   -0.7604   -1.7790 N   0  0  0  0  0  0  0  0  0  0  0  0
   -2.6129   -3.8977   -0.8662 N   0  0  0  0  0  0  0  0  0  0  0  0
   -1.4409    1.0587    1.0708 N   0  0  0  0  0  0  0  0  0  0  0  0
   -0.4912    0.9892    1.9685 N   0  0  0  0  0  0  0  0  0  0  0  0
    5.8891    1.6883    0.7599 H   0  0  0  0  0  0  0  0  0  0  0  0
    4.7464    0.3688    0.6849 H   0  0  0  0  0  0  0  0  0  0  0  0
    5.9525    0.4097    1.9488 H   0  0  0  0  0  0  0  0  0  0  0  0
    5.9315    3.2171    2.3646 H   0  0  0  0  0  0  0  0  0  0  0  0
    4.5794    3.5605    3.4165 H   0  0  0  0  0  0  0  0  0  0  0  0
    4.4494    3.8604    1.6998 H   0  0  0  0  0  0  0  0  0  0  0  0
    3.2713    1.3337    4.0023 H   0  0  0  0  0  0  0  0  0  0  0  0
    5.0038    1.4310    4.2100 H   0  0  0  0  0  0  0  0  0  0  0  0
    3.6844   -0.5920    2.7210 H   0  0  0  0  0  0  0  0  0  0  0  0
    3.0952    1.6762    0.5287 H   0  0  0  0  0  0  0  0  0  0  0  0
    2.5618    2.8216    1.7360 H   0  0  0  0  0  0  0  0  0  0  0  0
    1.7880    1.0413    3.1487 H   0  0  0  0  0  0  0  0  0  0  0  0
    2.4389   -0.1555    2.0541 H   0  0  0  0  0  0  0  0  0  0  0  0
    1.1781    0.6938   -0.7715 H   0  0  0  0  0  0  0  0  0  0  0  0
   -1.1446    0.6553   -2.1651 H   0  0  0  0  0  0  0  0  0  0  0  0
   -1.6988    2.1968   -1.5561 H   0  0  0  0  0  0  0  0  0  0  0  0
   -3.7122    1.2256   -1.7800 H   0  0  0  0  0  0  0  0  0  0  0  0
   -3.3239    0.5776   -0.2041 H   0  0  0  0  0  0  0  0  0  0  0  0
   -2.3175   -1.3449   -1.6768 H   0  0  0  0  0  0  0  0  0  0  0  0
   -6.4589   -2.5447   -2.2527 H   0  0  0  0  0  0  0  0  0  0  0  0
   -5.8369   -4.0658   -1.6581 H   0  0  0  0  0  0  0  0  0  0  0  0
   -3.4353   -4.0630   -4.0945 H   0  0  0  0  0  0  0  0  0  0  0  0
   -4.0407   -2.5420   -4.7061 H   0  0  0  0  0  0  0  0  0  0  0  0
  1  2  1  0  0  0  0
  1 25  1  0  0  0  0
  1 26  1  0  0  0  0
  1 27  1  0  0  0  0
  2  3  1  0  0  0  0
  2  4  1  0  0  0  0
  2  5  1  0  0  0  0
  3 28  1  0  0  0  0
  3 29  1  0  0  0  0
  3 30  1  0  0  0  0
  4 17  1  0  0  0  0
  4 31  1  0  0  0  0
  4 32  1  0  0  0  0
  5  6  1  0  0  0  0
  5 34  1  0  0  0  0
  5 35  1  0  0  0  0
  6  7  1  0  0  0  0
  6 36  1  0  0  0  0
  6 37  1  0  0  0  0
  7 24  1  0  0  0  0
  7  8  2  0  0  0  0
  8 20  1  0  0  0  0
  8 38  1  0  0  0  0
  9 20  1  0  0  0  0
  9 10  1  0  0  0  0
  9 39  1  0  0  0  0
  9 40  1  0  0  0  0
 10 21  1  0  0  0  0
 10 41  1  0  0  0  0
 10 42  1  0  0  0  0
 11 21  1  0  0  0  0
 11 12  1  0  0  0  0
 11 18  2  0  0  0  0
 12 13  1  0  0  0  0
 12 14  1  0  0  0  0
 12 16  1  0  0  0  0
 13 22  3  0  0  0  0
 14 15  1  0  0  0  0
 14 44  1  0  0  0  0
 14 45  1  0  0  0  0
 15 16  1  0  0  0  0
 15 19  2  0  0  0  0
 16 46  1  0  0  0  0
 16 47  1  0  0  0  0
 17 33  1  0  0  0  0
 20 23  1  0  0  0  0
 21 43  1  0  0  0  0
 23 24  2  0  0  0  0
M  END
>  <score>
0.45367604494094849

$$$$
PV-003995498305
 OpenBabel08202115463D

 50 52  0  0  0  0  0  0  0  0999 V2000
    4.5703   -1.0785    3.8064 C   0  0  0  0  0  0  0  0  0  0  0  0
    5.0418    0.1485    3.1047 C   0  0  0  0  0  0  0  0  0  0  0  0
    4.2390    0.9238    2.3826 C   0  0  0  0  0  0  0  0  0  0  0  0
    2.7877    0.6465    2.1006 C   0  0  0  0  0  0  0  0  0  0  0  0
    0.8294    1.4512    0.8766 C   0  0  0  0  0  0  0  0  0  0  0  0
    0.8912    0.5251   -0.3035 C   0  0  0  0  0  0  0  0  0  0  0  0
   -0.6992    1.2386   -2.0938 C   0  0  0  0  0  0  0  0  0  0  0  0
   -1.2085   -0.7155   -0.7748 C   0  0  0  0  0  0  0  0  0  0  0  0
   -2.3677   -0.9048   -1.7142 C   0  0  0  0  0  0  0  0  0  0  0  0
   -3.3458   -1.9699   -1.2458 C   0  0  0  0  0  0  0  0  0  0  0  0
   -4.5407   -2.0971   -2.1323 C   0  0  0  0  0  0  0  0  0  0  0  0
   -6.7776   -2.2492   -3.7357 C   0  0  0  0  0  0  0  0  0  0  0  0
   -5.6768   -3.1703   -3.9284 C   0  0  0  0  0  0  0  0  0  0  0  0
   -4.5809   -3.1003   -3.1489 C   0  0  0  0  0  0  0  0  0  0  0  0
   -0.1205    2.5957    1.0675 C   0  0  0  0  0  0  0  0  0  0  0  0
   -0.2037    1.3962    1.9581 C   0  0  0  0  0  0  0  0  0  0  0  0
    5.0175    2.1399    1.8834 C   0  0  0  0  0  0  0  0  0  0  0  0
    6.4428    1.6657    2.1919 C   0  0  0  0  0  0  0  0  0  0  0  0
    2.2467   -0.3806    2.4879 O   0  0  0  0  0  0  0  0  0  0  0  0
   -1.0222   -1.4911    0.1619 O   0  0  0  0  0  0  0  0  0  0  0  0
   -7.8352   -2.1828   -4.3723 O   0  0  0  0  0  0  0  0  0  0  0  0
    6.3413    0.5789    3.1457 O   0  0  0  0  0  0  0  0  0  0  0  0
    2.1758    1.6098    1.4059 N   0  0  0  0  0  0  0  0  0  0  0  0
   -0.3864    0.3221   -0.9891 N   0  0  0  0  0  0  0  0  0  0  0  0
   -5.4913   -1.2479   -1.8985 N   0  0  0  0  0  0  0  0  0  0  0  0
   -6.5994   -1.3472   -2.7116 N   0  0  0  0  0  0  0  0  0  0  0  0
    5.3630   -1.7970    3.7886 H   0  0  0  0  0  0  0  0  0  0  0  0
    3.7109   -1.4743    3.3066 H   0  0  0  0  0  0  0  0  0  0  0  0
    4.3175   -0.8425    4.8189 H   0  0  0  0  0  0  0  0  0  0  0  0
    2.6501    2.4526    1.2471 H   0  0  0  0  0  0  0  0  0  0  0  0
    1.2411   -0.4268    0.0378 H   0  0  0  0  0  0  0  0  0  0  0  0
    1.5871    0.9296   -1.0085 H   0  0  0  0  0  0  0  0  0  0  0  0
    0.2099    1.6178   -2.5116 H   0  0  0  0  0  0  0  0  0  0  0  0
   -1.2889    2.0521   -1.7259 H   0  0  0  0  0  0  0  0  0  0  0  0
   -1.2464    0.7134   -2.8485 H   0  0  0  0  0  0  0  0  0  0  0  0
   -1.9864   -1.1902   -2.6723 H   0  0  0  0  0  0  0  0  0  0  0  0
   -2.8914    0.0243   -1.8004 H   0  0  0  0  0  0  0  0  0  0  0  0
   -3.6780   -1.7175   -0.2605 H   0  0  0  0  0  0  0  0  0  0  0  0
   -2.8380   -2.9114   -1.2213 H   0  0  0  0  0  0  0  0  0  0  0  0
   -7.3299   -0.7156   -2.5449 H   0  0  0  0  0  0  0  0  0  0  0  0
   -5.7330   -3.8920   -4.6752 H   0  0  0  0  0  0  0  0  0  0  0  0
   -3.7864   -3.7577   -3.2830 H   0  0  0  0  0  0  0  0  0  0  0  0
   -0.8881    2.7800    0.3452 H   0  0  0  0  0  0  0  0  0  0  0  0
    0.2351    3.5270    1.4562 H   0  0  0  0  0  0  0  0  0  0  0  0
    0.0919    1.4706    2.9838 H   0  0  0  0  0  0  0  0  0  0  0  0
   -1.0314    0.7235    1.8728 H   0  0  0  0  0  0  0  0  0  0  0  0
    4.7649    3.0268    2.4262 H   0  0  0  0  0  0  0  0  0  0  0  0
    4.8696    2.3073    0.8369 H   0  0  0  0  0  0  0  0  0  0  0  0
    6.9160    1.3226    1.2956 H   0  0  0  0  0  0  0  0  0  0  0  0
    7.0123    2.4685    2.6116 H   0  0  0  0  0  0  0  0  0  0  0  0
  1  2  1  0  0  0  0
  1 27  1  0  0  0  0
  1 28  1  0  0  0  0
  1 29  1  0  0  0  0
  2 22  1  0  0  0  0
  2  3  2  0  0  0  0
  3  4  1  0  0  0  0
  3 17  1  0  0  0  0
  4 23  1  0  0  0  0
  4 19  2  0  0  0  0
  5 23  1  0  0  0  0
  5  6  1  0  0  0  0
  5 15  1  0  0  0  0
  5 16  1  0  0  0  0
  6 24  1  0  0  0  0
  6 31  1  0  0  0  0
  6 32  1  0  0  0  0
  7 24  1  0  0  0  0
  7 33  1  0  0  0  0
  7 34  1  0  0  0  0
  7 35  1  0  0  0  0
  8 24  1  0  0  0  0
  8  9  1  0  0  0  0
  8 20  2  0  0  0  0
  9 10  1  0  0  0  0
  9 36  1  0  0  0  0
  9 37  1  0  0  0  0
 10 11  1  0  0  0  0
 10 38  1  0  0  0  0
 10 39  1  0  0  0  0
 11 14  1  0  0  0  0
 11 25  2  0  0  0  0
 12 26  1  0  0  0  0
 12 13  1  0  0  0  0
 12 21  2  0  0  0  0
 13 41  1  0  0  0  0
 13 14  2  0  0  0  0
 14 42  1  0  0  0  0
 15 16  1  0  0  0  0
 15 43  1  0  0  0  0
 15 44  1  0  0  0  0
 16 45  1  0  0  0  0
 16 46  1  0  0  0  0
 17 18  1  0  0  0  0
 17 47  1  0  0  0  0
 17 48  1  0  0  0  0
 18 22  1  0  0  0  0
 18 49  1  0  0  0  0
 18 50  1  0  0  0  0
 23 30  1  0  0  0  0
 25 26  1  0  0  0  0
 26 40  1  0  0  0  0
M  END
>  <score>
0.453754723072052

$$$$
